* 
* Copyright (c) 1993 - 2022 ARM. All Rights Reserved
* This file has been provided pursuant to a License Agreement
* containing restrictions on its use.  This file contains valuable
* trade secrets and proprietary information of ARM,
* and is protected by patents, copyright law
* and international treaties
* 
* Generated by bif2cdl 3.9.2
* Version: r1p1
* Name: High Density Single Port Register File RVT RVT Compiler | LOGIC0040LL 40nm Process 0.299um^2 Bit Cell
* Comment: This is a memory instance
* Configuration:  -activity_factor 50 -back_biasing off -bits 16 -b\
* Configuration: mux off -bus_notation on -check_instname on -diode\
* Configuration: s on -drive 6 -ema on -frequency 1.0 -instname RAM\
* Configuration: SP4096X16 -left_bus_delim "[" -mux 8 -mvt "" -name\
* Configuration: _case upper -power_type otc -prefix "" -pwr_gnd_re\
* Configuration: name vddpe:VDDPE,vddce:VDDCE,vsse:VSSE -retention \
* Configuration: on -right_bus_delim "]" -ser none -site_def off -t\
* Configuration: op_layer m5-m10 -words 4096 -write_mask on -write_\
* Configuration: thru off -corners ff_1p10v_1p10v_0c,ff_1p10v_1p10v\
* Configuration: _125c,ff_1p10v_1p10v_m40c,ff_1p21v_1p21v_0c,ff_1p2\
* Configuration: 1v_1p21v_125c,ff_1p21v_1p21v_m40c,ff_1p26v_1p26v_0\
* Configuration: c,ff_1p26v_1p26v_125c,ff_1p26v_1p26v_85c,ff_1p26v_\
* Configuration: 1p26v_m40c,ss_0p90v_0p90v_0c,ss_0p90v_0p90v_125c,s\
* Configuration: s_0p90v_0p90v_m40c,ss_0p99v_0p99v_0c,ss_0p99v_0p99\
* Configuration: v_125c,ss_0p99v_0p99v_m40c,ss_1p08v_1p08v_0c,ss_1p\
* Configuration: 08v_1p08v_125c,ss_1p08v_1p08v_m40c,tt_1p00v_1p00v_\
* Configuration: 125c,tt_1p00v_1p00v_25c,tt_1p00v_1p00v_85c,tt_1p10\
* Configuration: v_1p10v_125c,tt_1p10v_1p10v_25c,tt_1p10v_1p10v_85c\
* Configuration: ,tt_1p20v_1p20v_125c,tt_1p20v_1p20v_25c,tt_1p20v_1\
* Configuration: p20v_85c
* Codefile: 
* 
*
*.BIPOLAR
*.DIOAREA
*.DIOPERI
*
****
.SUBCKT RAMSP4096X16BOTCAP8 D LOG0 Q TD TWEN VDDCE VDDPE VNWP VPW VSS VSSE WEN
+  WENY
** RAMSP4096X16BOTCAP8: 4 flat devices **
DI77.D_Diode_X_dio VPW TWEN NDIO11LL AREA=0.035P PJ=0.78U
DI78.D_Diode_X_dio VPW TD NDIO11LL AREA=0.035P PJ=0.78U
DI80.D_Diode_X_dio VPW D NDIO11LL AREA=0.035P PJ=0.78U
DI82.D_Diode_X_dio VPW WEN NDIO11LL AREA=0.035P PJ=0.78U
.ENDS RAMSP4096X16BOTCAP8
****
.SUBCKT RAMSP4096X16BOTCAP8_RPT D LOG0 Q VDDCE VNWP VPW WEN WENY
** RAMSP4096X16BOTCAP8_RPT: 4 flat devices **
XI0 D LOG0 Q LOG0 LOG0 VDDCE VNWP VNWP VPW VPW VPW WEN WENY
+  RAMSP4096X16BOTCAP8
.ENDS RAMSP4096X16BOTCAP8_RPT
****
.SUBCKT RAMSP4096X16MIDBOT_BIST CA0 CA1 CA2 CAY0 CAY1 CAY2 CEN CENY CLK CRE1
+  CRE2 DFTRAMBYP DUMMY_DWL_R DUM_ACTP DUM_NACTC DUM_RETNVT EMA0 EMA1 EMA2
+  EMAW0 EMAW1 FCA1_0 FCA1_1 FCA1_2 FCA1_3 FCA1_4 FCA1_5 FCA1_6 FCA2_0 FCA2_1
+  FCA2_2 FCA2_3 FCA2_4 FCA2_5 FCA2_6 GWEN GWENY LA0 LA1 LA2 LAY0 LAY1 LAY2
+  LOG0 NWCLK PEN PENSI PENSO PGEN PSO0 PSO1 RA0 RA1 RA2 RA3 RA4 RA5 RAY0 RAY1
+  RAY2 RAY3 RAY4 RAY5 RDT RET1N RET2N SE SEL_D SEL_SI SEL_TD SO0 SO1 TCA0
+  TCA1 TCA2 TCEN TEN TGWEN TLA0 TLA1 TLA2 TPEN TRA0 TRA1 TRA2 TRA3 TRA4 TRA5
+  VDDCE VDDC_L VDDC_R VDDPE VDDP_CLKGEN VNWC VNWP VPW VSS VSSE
** RAMSP4096X16MIDBOT_BIST: 60 flat devices **
DI100.D_Diode_X_dio VPW FCA1_3 NDIO11LL AREA=0.035P PJ=0.78U
DI102.D_Diode_X_dio VPW CRE1 NDIO11LL AREA=0.035P PJ=0.78U
DI104.D_Diode_X_dio VPW RA5 NDIO11LL AREA=0.035P PJ=0.78U
DI106.D_Diode_X_dio VPW RA3 NDIO11LL AREA=0.035P PJ=0.78U
DI107.D_Diode_X_dio VPW RA4 NDIO11LL AREA=0.035P PJ=0.78U
DI108.D_Diode_X_dio VPW LA2 NDIO11LL AREA=0.035P PJ=0.78U
DI110.D_Diode_X_dio VPW LA1 NDIO11LL AREA=0.035P PJ=0.78U
DI111.D_Diode_X_dio VPW RA2 NDIO11LL AREA=0.035P PJ=0.78U
DI112.D_Diode_X_dio VPW RA1 NDIO11LL AREA=0.035P PJ=0.78U
DI114.D_Diode_X_dio VPW LA0 NDIO11LL AREA=0.035P PJ=0.78U
DI115.D_Diode_X_dio VPW CA2 NDIO11LL AREA=0.035P PJ=0.78U
DI117.D_Diode_X_dio VPW RA0 NDIO11LL AREA=0.035P PJ=0.78U
DI118.D_Diode_X_dio VPW TPEN NDIO11LL AREA=0.035P PJ=0.78U
DI119.D_Diode_X_dio VPW PEN NDIO11LL AREA=0.035P PJ=0.78U
DI120.D_Diode_X_dio VPW TGWEN NDIO11LL AREA=0.035P PJ=0.78U
DI121.D_Diode_X_dio VPW TCEN NDIO11LL AREA=0.035P PJ=0.78U
DI122.D_Diode_X_dio VPW CA0 NDIO11LL AREA=0.035P PJ=0.78U
DI123.D_Diode_X_dio VPW PENSI NDIO11LL AREA=0.035P PJ=0.78U
DI124.D_Diode_X_dio VPW CA1 NDIO11LL AREA=0.035P PJ=0.78U
DI125.D_Diode_X_dio VPW TLA1 NDIO11LL AREA=0.035P PJ=0.78U
DI126.D_Diode_X_dio VPW TLA2 NDIO11LL AREA=0.035P PJ=0.78U
DI127.D_Diode_X_dio VPW TRA4 NDIO11LL AREA=0.035P PJ=0.78U
DI128.D_Diode_X_dio VPW TRA5 NDIO11LL AREA=0.035P PJ=0.78U
DI129.D_Diode_X_dio VPW TRA3 NDIO11LL AREA=0.035P PJ=0.78U
DI130.D_Diode_X_dio VPW TRA2 NDIO11LL AREA=0.035P PJ=0.78U
DI131.D_Diode_X_dio VPW TLA0 NDIO11LL AREA=0.035P PJ=0.78U
DI132.D_Diode_X_dio VPW TCA2 NDIO11LL AREA=0.035P PJ=0.78U
DI133.D_Diode_X_dio VPW TRA0 NDIO11LL AREA=0.035P PJ=0.78U
DI134.D_Diode_X_dio VPW TRA1 NDIO11LL AREA=0.035P PJ=0.78U
DI135.D_Diode_X_dio VPW TCA1 NDIO11LL AREA=0.035P PJ=0.78U
DI136.D_Diode_X_dio VPW TCA0 NDIO11LL AREA=0.035P PJ=0.78U
DI137.D_Diode_X_dio VPW GWEN NDIO11LL AREA=0.035P PJ=0.78U
DI138.D_Diode_X_dio VPW CEN NDIO11LL AREA=0.035P PJ=0.78U
DI139.D_Diode_X_dio VPW RDT NDIO11LL AREA=0.035P PJ=0.78U
DI140.D_Diode_X_dio VPW TEN NDIO11LL AREA=0.035P PJ=0.78U
DI142.D_Diode_X_dio VPW DFTRAMBYP NDIO11LL AREA=0.035P PJ=0.78U
DI146.D_Diode_X_dio VPW EMA2 NDIO11LL AREA=0.035P PJ=0.78U
DI147.D_Diode_X_dio VPW EMA1 NDIO11LL AREA=0.035P PJ=0.78U
DI148.D_Diode_X_dio VPW EMA0 NDIO11LL AREA=0.035P PJ=0.78U
DI151.D_Diode_X_dio VPW EMAW0 NDIO11LL AREA=0.035P PJ=0.78U
DI152.D_Diode_X_dio VPW EMAW1 NDIO11LL AREA=0.035P PJ=0.78U
DI154.D_Diode_X_dio VPW CLK NDIO11LL AREA=0.035P PJ=0.78U
DI157.D_Diode_X_dio VPW SE NDIO11LL AREA=0.035P PJ=0.78U
DI158.D_Diode_X_dio VPW PGEN NDIO11LL AREA=0.035P PJ=0.78U
DI159.D_Diode_X_dio VPW RET2N NDIO11LL AREA=0.035P PJ=0.78U
DI160.D_Diode_X_dio VPW RET1N NDIO11LL AREA=0.035P PJ=0.78U
DI61.D_Diode_X_dio VPW FCA1_0 NDIO11LL AREA=0.035P PJ=0.78U
DI65.D_Diode_X_dio VPW FCA1_1 NDIO11LL AREA=0.035P PJ=0.78U
DI66.D_Diode_X_dio VPW FCA1_2 NDIO11LL AREA=0.035P PJ=0.78U
DI77.D_Diode_X_dio VPW FCA2_6 NDIO11LL AREA=0.035P PJ=0.78U
DI90.D_Diode_X_dio VPW FCA2_4 NDIO11LL AREA=0.035P PJ=0.78U
DI91.D_Diode_X_dio VPW FCA2_5 NDIO11LL AREA=0.035P PJ=0.78U
DI92.D_Diode_X_dio VPW FCA2_2 NDIO11LL AREA=0.035P PJ=0.78U
DI93.D_Diode_X_dio VPW FCA2_1 NDIO11LL AREA=0.035P PJ=0.78U
DI94.D_Diode_X_dio VPW FCA2_3 NDIO11LL AREA=0.035P PJ=0.78U
DI95.D_Diode_X_dio VPW FCA1_6 NDIO11LL AREA=0.035P PJ=0.78U
DI96.D_Diode_X_dio VPW FCA1_4 NDIO11LL AREA=0.035P PJ=0.78U
DI97.D_Diode_X_dio VPW FCA1_5 NDIO11LL AREA=0.035P PJ=0.78U
DI98.D_Diode_X_dio VPW FCA2_0 NDIO11LL AREA=0.035P PJ=0.78U
DI99.D_Diode_X_dio VPW CRE2 NDIO11LL AREA=0.035P PJ=0.78U
.ENDS RAMSP4096X16MIDBOT_BIST
****
.SUBCKT RAMSP4096X16MIDBOT_BIST_WRAPT CA0 CA1 CA2 CAY0 CAY1 CAY2 CEN CENY CLK
+  CRE1 CRE2 DFTRAMBYP DUMMY_DWL_R DUM_ACTP DUM_NACTC DUM_RETNVT EMA0 EMA1
+  EMA2 EMAW0 EMAW1 FCA1_0 FCA1_1 FCA1_2 FCA1_3 FCA1_4 FCA1_5 FCA1_6 FCA2_0
+  FCA2_1 FCA2_2 FCA2_3 FCA2_4 FCA2_5 FCA2_6 GWEN GWENY LA0 LA1 LA2 LAY0 LAY1
+  LAY2 LOG0 NWCLK PEN PENSI PENSO PSO0 PSO1 RA0 RA1 RA2 RA3 RA4 RA5 RAY0 RAY1
+  RAY2 RAY3 RAY4 RAY5 RDT RET1N SE SEL_D SEL_SI SEL_TD SO0 SO1 TCA0 TCA1 TCA2
+  TCEN TEN TGWEN TLA0 TLA1 TLA2 TPEN TRA0 TRA1 TRA2 TRA3 TRA4 TRA5 VDDCE
+  VDDC_L VDDC_R VDDPE VDDP_CLKGEN VNWC VNWP VPW VSS VSSE
** RAMSP4096X16MIDBOT_BIST_WRAPT: 60 flat devices **
XI0 CA0 CA1 CA2 CAY0 CAY1 CAY2 CEN CENY CLK CRE1 CRE2 DFTRAMBYP DUMMY_DWL_R
+  DUM_ACTP DUM_NACTC DUM_RETNVT EMA0 EMA1 EMA2 EMAW0 EMAW1 FCA1_0 FCA1_1
+  FCA1_2 FCA1_3 FCA1_4 FCA1_5 FCA1_6 FCA2_0 FCA2_1 FCA2_2 FCA2_3 FCA2_4
+  FCA2_5 FCA2_6 GWEN GWENY LA0 LA1 LA2 LAY0 LAY1 LAY2 LOG0 NWCLK PEN PENSI
+  PENSO PGEN PSO0 PSO1 RA0 RA1 RA2 RA3 RA4 RA5 RAY0 RAY1 RAY2 RAY3 RAY4 RAY5
+  RDT RET1N RET2N SE SEL_D SEL_SI SEL_TD SO0 SO1 TCA0 TCA1 TCA2 TCEN TEN
+  TGWEN TLA0 TLA1 TLA2 TPEN TRA0 TRA1 TRA2 TRA3 TRA4 TRA5 VDDCE VDDC_L VDDC_R
+  VDDPE VDDP_CLKGEN VNWC VNWP VPW VSS VSSE RAMSP4096X16MIDBOT_BIST
.ENDS RAMSP4096X16MIDBOT_BIST_WRAPT
****
.SUBCKT RAMSP4096X16BOTCORNER LOG0 PSI SI VNWC VNWP VPW VSS
** RAMSP4096X16BOTCORNER: 2 flat devices **
DI74.D_Diode_X_dio VPW PSI NDIO11LL AREA=0.035P PJ=0.78U
DI85.D_Diode_X_dio VPW SI NDIO11LL AREA=0.035P PJ=0.78U
.ENDS RAMSP4096X16BOTCORNER
****
.SUBCKT RAMSP4096X16BOTCORNER_WRAPT LOG0 PSI SI VNWC VNWP VPW VSS
** RAMSP4096X16BOTCORNER_WRAPT: 2 flat devices **
XI0 LOG0 PSI SI VNWC VNWP VPW VSS RAMSP4096X16BOTCORNER
.ENDS RAMSP4096X16BOTCORNER_WRAPT
****
.SUBCKT RAMSP4096X16BOTCAPROW CA0 CA1 CA2 CAY0 CAY1 CAY2 CEN CENY CLK CRE1
+  CRE2 DFTRAMBYP DUMMY_DWL_R DUM_ACTP DUM_NACTC DUM_RETNVT D_0 D_1 D_2 D_3
+  D_4 D_5 D_6 D_7 D_8 D_9 D_10 D_11 D_12 D_13 D_14 D_15 EMA0 EMA1 EMA2 EMAW0
+  EMAW1 FCA1_0 FCA1_1 FCA1_2 FCA1_3 FCA1_4 FCA1_5 FCA1_6 FCA2_0 FCA2_1 FCA2_2
+  FCA2_3 FCA2_4 FCA2_5 FCA2_6 GWEN GWENY LA0 LA1 LA2 LAY0 LAY1 LAY2 LOG0
+  NWCLK PEN PENSI PENSO PSI_0 PSI_1 PSO0 PSO1 Q_0 Q_1 Q_2 Q_3 Q_4 Q_5 Q_6 Q_7
+  Q_8 Q_9 Q_10 Q_11 Q_12 Q_13 Q_14 Q_15 RA0 RA1 RA2 RA3 RA4 RA5 RAY0 RAY1
+  RAY2 RAY3 RAY4 RAY5 RDT RET1N SE SEL_D SEL_SI SEL_TD SI_0 SI_1 SO0 SO1 TCA0
+  TCA1 TCA2 TCEN TEN TGWEN TLA0 TLA1 TLA2 TPEN TRA0 TRA1 TRA2 TRA3 TRA4 TRA5
+  VDDCE_0 VDDCE_1 VDDCE_2 VDDCE_3 VDDCE_4 VDDCE_5 VDDCE_6 VDDCE_7 VDDCE_8
+  VDDCE_9 VDDCE_10 VDDCE_11 VDDCE_12 VDDCE_13 VDDCE_14 VDDCE_15 VDDCE_16
+  VDDC_L VDDC_R VDDPE VDDP_CLKGEN VNWC_0 VNWC_1 VNWC_2 VNWP VPW VSSE WENY_0
+  WENY_1 WENY_2 WENY_3 WENY_4 WENY_5 WENY_6 WENY_7 WENY_8 WENY_9 WENY_10
+  WENY_11 WENY_12 WENY_13 WENY_14 WENY_15 WEN_0 WEN_1 WEN_2 WEN_3 WEN_4 WEN_5
+  WEN_6 WEN_7 WEN_8 WEN_9 WEN_10 WEN_11 WEN_12 WEN_13 WEN_14 WEN_15
** RAMSP4096X16BOTCAPROW: 128 flat devices **
XCENTRE CA0 CA1 CA2 CAY0 CAY1 CAY2 CEN CENY CLK CRE1 CRE2 DFTRAMBYP
+  DUMMY_DWL_R DUM_ACTP DUM_NACTC DUM_RETNVT EMA0 EMA1 EMA2 EMAW0 EMAW1 FCA1_0
+  FCA1_1 FCA1_2 FCA1_3 FCA1_4 FCA1_5 FCA1_6 FCA2_0 FCA2_1 FCA2_2 FCA2_3
+  FCA2_4 FCA2_5 FCA2_6 GWEN GWENY LA0 LA1 LA2 LAY0 LAY1 LAY2 LOG0 NWCLK PEN
+  PENSI PENSO PSO0 PSO1 RA0 RA1 RA2 RA3 RA4 RA5 RAY0 RAY1 RAY2 RAY3 RAY4 RAY5
+  RDT RET1N SE SEL_D SEL_SI SEL_TD SO0 SO1 TCA0 TCA1 TCA2 TCEN TEN TGWEN TLA0
+  TLA1 TLA2 TPEN TRA0 TRA1 TRA2 TRA3 TRA4 TRA5 VDDCE_8 VDDC_L VDDC_R VDDPE
+  VDDP_CLKGEN VNWC_1 VNWP VPW VPW VSSE RAMSP4096X16MIDBOT_BIST_WRAPT
XLEFT LOG0 PSI_0 SI_0 VNWC_0 VNWP VPW VPW RAMSP4096X16BOTCORNER_WRAPT
XLEFT_COL_0 D_0 LOG0 Q_0 VDDCE_0 VNWP VPW WEN_0 WENY_0 RAMSP4096X16BOTCAP8_RPT
XLEFT_COL_1 D_1 LOG0 Q_1 VDDCE_1 VNWP VPW WEN_1 WENY_1 RAMSP4096X16BOTCAP8_RPT
XLEFT_COL_2 D_2 LOG0 Q_2 VDDCE_2 VNWP VPW WEN_2 WENY_2 RAMSP4096X16BOTCAP8_RPT
XLEFT_COL_3 D_3 LOG0 Q_3 VDDCE_3 VNWP VPW WEN_3 WENY_3 RAMSP4096X16BOTCAP8_RPT
XLEFT_COL_4 D_4 LOG0 Q_4 VDDCE_4 VNWP VPW WEN_4 WENY_4 RAMSP4096X16BOTCAP8_RPT
XLEFT_COL_5 D_5 LOG0 Q_5 VDDCE_5 VNWP VPW WEN_5 WENY_5 RAMSP4096X16BOTCAP8_RPT
XLEFT_COL_6 D_6 LOG0 Q_6 VDDCE_6 VNWP VPW WEN_6 WENY_6 RAMSP4096X16BOTCAP8_RPT
XLEFT_COL_7 D_7 LOG0 Q_7 VDDCE_7 VNWP VPW WEN_7 WENY_7 RAMSP4096X16BOTCAP8_RPT
XRIGHT LOG0 PSI_1 SI_1 VNWC_2 VNWP VPW VPW RAMSP4096X16BOTCORNER_WRAPT
XRIGHT_COL_0 D_8 LOG0 Q_8 VDDCE_9 VNWP VPW WEN_8 WENY_8
+  RAMSP4096X16BOTCAP8_RPT
XRIGHT_COL_1 D_9 LOG0 Q_9 VDDCE_10 VNWP VPW WEN_9 WENY_9
+  RAMSP4096X16BOTCAP8_RPT
XRIGHT_COL_2 D_10 LOG0 Q_10 VDDCE_11 VNWP VPW WEN_10 WENY_10
+  RAMSP4096X16BOTCAP8_RPT
XRIGHT_COL_3 D_11 LOG0 Q_11 VDDCE_12 VNWP VPW WEN_11 WENY_11
+  RAMSP4096X16BOTCAP8_RPT
XRIGHT_COL_4 D_12 LOG0 Q_12 VDDCE_13 VNWP VPW WEN_12 WENY_12
+  RAMSP4096X16BOTCAP8_RPT
XRIGHT_COL_5 D_13 LOG0 Q_13 VDDCE_14 VNWP VPW WEN_13 WENY_13
+  RAMSP4096X16BOTCAP8_RPT
XRIGHT_COL_6 D_14 LOG0 Q_14 VDDCE_15 VNWP VPW WEN_14 WENY_14
+  RAMSP4096X16BOTCAP8_RPT
XRIGHT_COL_7 D_15 LOG0 Q_15 VDDCE_16 VNWP VPW WEN_15 WENY_15
+  RAMSP4096X16BOTCAP8_RPT
.ENDS RAMSP4096X16BOTCAPROW
****
.SUBCKT RAMSP4096X16COLM8_BIST_WM ADDR BL0 BL1 BL2 BL3 BL4 BL5 BL6 BL7 BLPRECH
+  D DFTRAMBYP DWL IADDR IADDR_NSAE LOG0 NACT_CC NADDR NADDR_NSAE NBL0 NBL1
+  NBL2 NBL3 NBL4 NBL5 NBL6 NBL7 NSAE NWCLK NWCLK_WT NYR0 NYR1 NYR2 NYR3 SAE
+  SAO SAPRECH SEL_D SEL_SI SEL_TD SI SO TD TE TWEN TWENL TWENR TWEN_PRG VDDC
+  VDDCE VDDPE VNWC VNWP VPW VSS VSSE WEN WENL WENR WENY WEN_PRG YW0 YW1 YW2
+  YW3
** RAMSP4096X16COLM8_BIST_WM: 239 flat devices **
X_M_cd.I39.MXNA1 _CD.NBLPRECH BLPRECH VSS VPW N11LL_CKT W=0.79U L=0.04U
X_M_cd.I39.MXPA1 _CD.NBLPRECH BLPRECH VDDPE VNWP P11LL_CKT W=1.725U L=0.04U
X_M_cd.I46.MXNA1 SAE NSAE VSS VPW N11LL_CKT W=0.28U L=0.04U
X_M_cd.I46.MXPA1 SAE NSAE VDDPE VNWP P11LL_CKT W=0.56U L=0.04U
X_M_cd.I56.MXNA1 _CD.NSAPRECH SAPRECH _CD.I56.N1 VPW N11LL_CKT W=0.25U L=0.04U
X_M_cd.I56.MXNA2 _CD.I56.N1 NSAE VSS VPW N11LL_CKT W=0.25U L=0.04U
X_M_cd.I56.MXPA1 _CD.NSAPRECH SAPRECH VDDPE VNWP P11LL_CKT W=0.56U L=0.04U
X_M_cd.I56.MXPA2 _CD.NSAPRECH NSAE VDDPE VNWP P11LL_CKT W=0.33U L=0.04U
X_M_cd.MXN18 _CD.SAINT LOG0 VSS VPW N11LL_CKT W=1.175U L=0.04U
X_M_cd.MXP0 _CD.NSD IADDR_NSAE _CD.NSD0 VNWC P11LL_CKT W=0.42U L=0.04U
X_M_cd.MXP1 _CD.SD IADDR_NSAE _CD.SD0 VNWC P11LL_CKT W=0.42U L=0.04U
X_M_cd.MXP2 _CD.SD NADDR_NSAE _CD.SD1 VNWC P11LL_CKT W=0.42U L=0.04U
X_M_cd.MXP3 _CD.NSD NADDR_NSAE _CD.NSD1 VNWC P11LL_CKT W=0.42U L=0.04U
X_M_cd.MXP5 _CD.SD1 _CD.NSAPRECH VDDPE VNWC P11LL_CKT W=0.42U L=0.04U
X_M_cd.MXP6 _CD.NSD1 _CD.NSAPRECH VDDPE VNWC P11LL_CKT W=0.42U L=0.04U
X_M_cd.MXP7 _CD.NSD0 _CD.NSAPRECH VDDPE VNWC P11LL_CKT W=0.42U L=0.04U
X_M_cd.MXP8 _CD.SD0 _CD.NSAPRECH VDDPE VNWC P11LL_CKT W=0.42U L=0.04U
X_M_cd._dwl_load_0.MXNpgl VSS DWL VSS VPW N11LL_CKT W=0.6U L=0.06U
X_M_cd._dwl_load_1.MXNpgl VSS DWL VSS VPW N11LL_CKT W=0.6U L=0.06U
X_M_cd._dwl_load_2.MXNpgl VSS DWL VSS VPW N11LL_CKT W=0.6U L=0.06U
X_M_cd._dwl_load_3.MXNpgl VSS DWL VSS VPW N11LL_CKT W=0.6U L=0.06U
X_M_cd._rw0_1._mx0.MXN0 NBL0 YW0 WRZERO0 VPW N11LL_CKT W=0.58U L=0.04U
X_M_cd._rw0_1._mx0.MXN1 BL0 YW0 WRONE0 VPW N11LL_CKT W=0.58U L=0.04U
X_M_cd._rw0_1._mx0.MXP1 NBL0 _CD.NBLPRECH VDDPE VNWC P11LL_CKT W=0.45U L=0.04U
X_M_cd._rw0_1._mx0.MXP10 _CD._RW0_1._MX0.VVDP NACT_CC VDDPE VNWC P11LL_CKT
+  W=0.28U L=0.04U
X_M_cd._rw0_1._mx0.MXP3 _CD.NSD0 NYR0 NBL0 VNWC P11LL_CKT W=0.475U L=0.04U
X_M_cd._rw0_1._mx0.MXP4 _CD.SD0 NYR0 BL0 VNWC P11LL_CKT W=0.475U L=0.04U
X_M_cd._rw0_1._mx0.MXP5 NBL0 BL0 _CD._RW0_1._MX0.VVDP VNWC P11LL_CKT W=0.28U
+  L=0.04U
X_M_cd._rw0_1._mx0.MXP7 BL0 _CD.NBLPRECH VDDPE VNWC P11LL_CKT W=0.45U L=0.04U
X_M_cd._rw0_1._mx0.MXP8 NBL0 _CD.NBLPRECH BL0 VNWC P11LL_CKT W=0.45U L=0.04U
X_M_cd._rw0_1._mx0.MXP9 BL0 NBL0 _CD._RW0_1._MX0.VVDP VNWC P11LL_CKT W=0.28U
+  L=0.04U
X_M_cd._rw0_1._mx1.MXN0 NBL1 YW1 WRZERO0 VPW N11LL_CKT W=0.58U L=0.04U
X_M_cd._rw0_1._mx1.MXN1 BL1 YW1 WRONE0 VPW N11LL_CKT W=0.58U L=0.04U
X_M_cd._rw0_1._mx1.MXP1 NBL1 _CD.NBLPRECH VDDPE VNWC P11LL_CKT W=0.45U L=0.04U
X_M_cd._rw0_1._mx1.MXP10 _CD._RW0_1._MX1.VVDP NACT_CC VDDPE VNWC P11LL_CKT
+  W=0.28U L=0.04U
X_M_cd._rw0_1._mx1.MXP3 _CD.NSD0 NYR1 NBL1 VNWC P11LL_CKT W=0.475U L=0.04U
X_M_cd._rw0_1._mx1.MXP4 _CD.SD0 NYR1 BL1 VNWC P11LL_CKT W=0.475U L=0.04U
X_M_cd._rw0_1._mx1.MXP5 NBL1 BL1 _CD._RW0_1._MX1.VVDP VNWC P11LL_CKT W=0.28U
+  L=0.04U
X_M_cd._rw0_1._mx1.MXP7 BL1 _CD.NBLPRECH VDDPE VNWC P11LL_CKT W=0.45U L=0.04U
X_M_cd._rw0_1._mx1.MXP8 NBL1 _CD.NBLPRECH BL1 VNWC P11LL_CKT W=0.45U L=0.04U
X_M_cd._rw0_1._mx1.MXP9 BL1 NBL1 _CD._RW0_1._MX1.VVDP VNWC P11LL_CKT W=0.28U
+  L=0.04U
X_M_cd._rw2_3._mx0.MXN0 NBL2 YW2 WRZERO0 VPW N11LL_CKT W=0.58U L=0.04U
X_M_cd._rw2_3._mx0.MXN1 BL2 YW2 WRONE0 VPW N11LL_CKT W=0.58U L=0.04U
X_M_cd._rw2_3._mx0.MXP1 NBL2 _CD.NBLPRECH VDDPE VNWC P11LL_CKT W=0.45U L=0.04U
X_M_cd._rw2_3._mx0.MXP10 _CD._RW2_3._MX0.VVDP NACT_CC VDDPE VNWC P11LL_CKT
+  W=0.28U L=0.04U
X_M_cd._rw2_3._mx0.MXP3 _CD.NSD0 NYR2 NBL2 VNWC P11LL_CKT W=0.475U L=0.04U
X_M_cd._rw2_3._mx0.MXP4 _CD.SD0 NYR2 BL2 VNWC P11LL_CKT W=0.475U L=0.04U
X_M_cd._rw2_3._mx0.MXP5 NBL2 BL2 _CD._RW2_3._MX0.VVDP VNWC P11LL_CKT W=0.28U
+  L=0.04U
X_M_cd._rw2_3._mx0.MXP7 BL2 _CD.NBLPRECH VDDPE VNWC P11LL_CKT W=0.45U L=0.04U
X_M_cd._rw2_3._mx0.MXP8 NBL2 _CD.NBLPRECH BL2 VNWC P11LL_CKT W=0.45U L=0.04U
X_M_cd._rw2_3._mx0.MXP9 BL2 NBL2 _CD._RW2_3._MX0.VVDP VNWC P11LL_CKT W=0.28U
+  L=0.04U
X_M_cd._rw2_3._mx1.MXN0 NBL3 YW3 WRZERO0 VPW N11LL_CKT W=0.58U L=0.04U
X_M_cd._rw2_3._mx1.MXN1 BL3 YW3 WRONE0 VPW N11LL_CKT W=0.58U L=0.04U
X_M_cd._rw2_3._mx1.MXP1 NBL3 _CD.NBLPRECH VDDPE VNWC P11LL_CKT W=0.45U L=0.04U
X_M_cd._rw2_3._mx1.MXP10 _CD._RW2_3._MX1.VVDP NACT_CC VDDPE VNWC P11LL_CKT
+  W=0.28U L=0.04U
X_M_cd._rw2_3._mx1.MXP3 _CD.NSD0 NYR3 NBL3 VNWC P11LL_CKT W=0.475U L=0.04U
X_M_cd._rw2_3._mx1.MXP4 _CD.SD0 NYR3 BL3 VNWC P11LL_CKT W=0.475U L=0.04U
X_M_cd._rw2_3._mx1.MXP5 NBL3 BL3 _CD._RW2_3._MX1.VVDP VNWC P11LL_CKT W=0.28U
+  L=0.04U
X_M_cd._rw2_3._mx1.MXP7 BL3 _CD.NBLPRECH VDDPE VNWC P11LL_CKT W=0.45U L=0.04U
X_M_cd._rw2_3._mx1.MXP8 NBL3 _CD.NBLPRECH BL3 VNWC P11LL_CKT W=0.45U L=0.04U
X_M_cd._rw2_3._mx1.MXP9 BL3 NBL3 _CD._RW2_3._MX1.VVDP VNWC P11LL_CKT W=0.28U
+  L=0.04U
X_M_cd._rw4_5._mx0.MXN0 NBL4 YW0 WRZERO1 VPW N11LL_CKT W=0.58U L=0.04U
X_M_cd._rw4_5._mx0.MXN1 BL4 YW0 WRONE1 VPW N11LL_CKT W=0.58U L=0.04U
X_M_cd._rw4_5._mx0.MXP1 NBL4 _CD.NBLPRECH VDDPE VNWC P11LL_CKT W=0.45U L=0.04U
X_M_cd._rw4_5._mx0.MXP10 _CD._RW4_5._MX0.VVDP NACT_CC VDDPE VNWC P11LL_CKT
+  W=0.28U L=0.04U
X_M_cd._rw4_5._mx0.MXP3 _CD.NSD1 NYR0 NBL4 VNWC P11LL_CKT W=0.475U L=0.04U
X_M_cd._rw4_5._mx0.MXP4 _CD.SD1 NYR0 BL4 VNWC P11LL_CKT W=0.475U L=0.04U
X_M_cd._rw4_5._mx0.MXP5 NBL4 BL4 _CD._RW4_5._MX0.VVDP VNWC P11LL_CKT W=0.28U
+  L=0.04U
X_M_cd._rw4_5._mx0.MXP7 BL4 _CD.NBLPRECH VDDPE VNWC P11LL_CKT W=0.45U L=0.04U
X_M_cd._rw4_5._mx0.MXP8 NBL4 _CD.NBLPRECH BL4 VNWC P11LL_CKT W=0.45U L=0.04U
X_M_cd._rw4_5._mx0.MXP9 BL4 NBL4 _CD._RW4_5._MX0.VVDP VNWC P11LL_CKT W=0.28U
+  L=0.04U
X_M_cd._rw4_5._mx1.MXN0 NBL5 YW1 WRZERO1 VPW N11LL_CKT W=0.58U L=0.04U
X_M_cd._rw4_5._mx1.MXN1 BL5 YW1 WRONE1 VPW N11LL_CKT W=0.58U L=0.04U
X_M_cd._rw4_5._mx1.MXP1 NBL5 _CD.NBLPRECH VDDPE VNWC P11LL_CKT W=0.45U L=0.04U
X_M_cd._rw4_5._mx1.MXP10 _CD._RW4_5._MX1.VVDP NACT_CC VDDPE VNWC P11LL_CKT
+  W=0.28U L=0.04U
X_M_cd._rw4_5._mx1.MXP3 _CD.NSD1 NYR1 NBL5 VNWC P11LL_CKT W=0.475U L=0.04U
X_M_cd._rw4_5._mx1.MXP4 _CD.SD1 NYR1 BL5 VNWC P11LL_CKT W=0.475U L=0.04U
X_M_cd._rw4_5._mx1.MXP5 NBL5 BL5 _CD._RW4_5._MX1.VVDP VNWC P11LL_CKT W=0.28U
+  L=0.04U
X_M_cd._rw4_5._mx1.MXP7 BL5 _CD.NBLPRECH VDDPE VNWC P11LL_CKT W=0.45U L=0.04U
X_M_cd._rw4_5._mx1.MXP8 NBL5 _CD.NBLPRECH BL5 VNWC P11LL_CKT W=0.45U L=0.04U
X_M_cd._rw4_5._mx1.MXP9 BL5 NBL5 _CD._RW4_5._MX1.VVDP VNWC P11LL_CKT W=0.28U
+  L=0.04U
X_M_cd._rw6_7._mx0.MXN0 NBL6 YW2 WRZERO1 VPW N11LL_CKT W=0.58U L=0.04U
X_M_cd._rw6_7._mx0.MXN1 BL6 YW2 WRONE1 VPW N11LL_CKT W=0.58U L=0.04U
X_M_cd._rw6_7._mx0.MXP1 NBL6 _CD.NBLPRECH VDDPE VNWC P11LL_CKT W=0.45U L=0.04U
X_M_cd._rw6_7._mx0.MXP10 _CD._RW6_7._MX0.VVDP NACT_CC VDDPE VNWC P11LL_CKT
+  W=0.28U L=0.04U
X_M_cd._rw6_7._mx0.MXP3 _CD.NSD1 NYR2 NBL6 VNWC P11LL_CKT W=0.475U L=0.04U
X_M_cd._rw6_7._mx0.MXP4 _CD.SD1 NYR2 BL6 VNWC P11LL_CKT W=0.475U L=0.04U
X_M_cd._rw6_7._mx0.MXP5 NBL6 BL6 _CD._RW6_7._MX0.VVDP VNWC P11LL_CKT W=0.28U
+  L=0.04U
X_M_cd._rw6_7._mx0.MXP7 BL6 _CD.NBLPRECH VDDPE VNWC P11LL_CKT W=0.45U L=0.04U
X_M_cd._rw6_7._mx0.MXP8 NBL6 _CD.NBLPRECH BL6 VNWC P11LL_CKT W=0.45U L=0.04U
X_M_cd._rw6_7._mx0.MXP9 BL6 NBL6 _CD._RW6_7._MX0.VVDP VNWC P11LL_CKT W=0.28U
+  L=0.04U
X_M_cd._rw6_7._mx1.MXN0 NBL7 YW3 WRZERO1 VPW N11LL_CKT W=0.58U L=0.04U
X_M_cd._rw6_7._mx1.MXN1 BL7 YW3 WRONE1 VPW N11LL_CKT W=0.58U L=0.04U
X_M_cd._rw6_7._mx1.MXP1 NBL7 _CD.NBLPRECH VDDPE VNWC P11LL_CKT W=0.45U L=0.04U
X_M_cd._rw6_7._mx1.MXP10 _CD._RW6_7._MX1.VVDP NACT_CC VDDPE VNWC P11LL_CKT
+  W=0.28U L=0.04U
X_M_cd._rw6_7._mx1.MXP3 _CD.NSD1 NYR3 NBL7 VNWC P11LL_CKT W=0.475U L=0.04U
X_M_cd._rw6_7._mx1.MXP4 _CD.SD1 NYR3 BL7 VNWC P11LL_CKT W=0.475U L=0.04U
X_M_cd._rw6_7._mx1.MXP5 NBL7 BL7 _CD._RW6_7._MX1.VVDP VNWC P11LL_CKT W=0.28U
+  L=0.04U
X_M_cd._rw6_7._mx1.MXP7 BL7 _CD.NBLPRECH VDDPE VNWC P11LL_CKT W=0.45U L=0.04U
X_M_cd._rw6_7._mx1.MXP8 NBL7 _CD.NBLPRECH BL7 VNWC P11LL_CKT W=0.45U L=0.04U
X_M_cd._rw6_7._mx1.MXP9 BL7 NBL7 _CD._RW6_7._MX1.VVDP VNWC P11LL_CKT W=0.28U
+  L=0.04U
X_M_cd._sa1.MXN17 _CD.NSD _CD.SD _CD.SAINT VPW N11LL_CKT W=2.36U L=0.085U
X_M_cd._sa1.MXN18 _CD.SAINT SAE VSS VPW N11LL_CKT W=1.175U L=0.04U
X_M_cd._sa1.MXN19 _CD.SD _CD.NSD _CD.SAINT VPW N11LL_CKT W=2.36U L=0.085U
X_M_cd._sa1.MXP24 _CD.NSD _CD.NSAPRECH VDDPE VNWP P11LL_CKT W=0.46U L=0.04U
X_M_cd._sa1.MXP25 _CD.NSD _CD.NSAPRECH _CD.SD VNWP P11LL_CKT W=0.46U L=0.04U
X_M_cd._sa1.MXP26 _CD.SD _CD.NSAPRECH VDDPE VNWP P11LL_CKT W=0.46U L=0.04U
X_M_cd._sa1.MXP27 _CD.NSD _CD.SD VDDPE VNWP P11LL_CKT W=0.465U L=0.04U
X_M_cd._sa1.MXP28 _CD.SD _CD.NSD VDDPE VNWP P11LL_CKT W=0.465U L=0.04U
X_M_cd._salat1.I62.MXNA1 SAO _CD._SALAT1.SD_LAT VSS VPW N11LL_CKT W=0.505U
+  L=0.04U
X_M_cd._salat1.I62.MXPA1 SAO _CD._SALAT1.SD_LAT VDDPE VNWP P11LL_CKT W=0.63U
+  L=0.04U
X_M_cd._salat1.I68.MXNA1 _CD._SALAT1.WCLK_WT NWCLK_WT VSS VPW N11LL_CKT
+  W=0.145U L=0.04U
X_M_cd._salat1.I68.MXPA1 _CD._SALAT1.WCLK_WT NWCLK_WT VDDPE VNWP P11LL_CKT
+  W=0.21U L=0.04U
X_M_cd._salat1.I69.MXNA1 _CD._SALAT1.I69.N1 D_WT VSS VPW N11LL_CKT W=0.28U
+  L=0.04U
X_M_cd._salat1.I69.MXNOE _CD._SALAT1.NSD_LAT _CD._SALAT1.WCLK_WT
+  _CD._SALAT1.I69.N1 VPW N11LL_CKT W=0.28U L=0.04U
X_M_cd._salat1.I69.MXPA1 _CD._SALAT1.I69.P1 D_WT VDDPE VNWP P11LL_CKT W=0.42U
+  L=0.04U
X_M_cd._salat1.I69.MXPOEN _CD._SALAT1.NSD_LAT NWCLK_WT _CD._SALAT1.I69.P1 VNWP
+  P11LL_CKT W=0.42U L=0.04U
X_M_cd._salat1.I70.MXNA1 _CD._SALAT1.I70.N1 _CD._SALAT1.SD_LAT VSS VPW
+  N11LL_CKT W=0.28U L=0.04U
X_M_cd._salat1.I70.MXNOE _CD._SALAT1.NSD_LAT NWCLK_WT _CD._SALAT1.I70.N1 VPW
+  N11LL_CKT W=0.28U L=0.04U
X_M_cd._salat1.I70.MXPA1 _CD._SALAT1.I70.P1 _CD._SALAT1.SD_LAT VDDPE VNWP
+  P11LL_CKT W=0.42U L=0.04U
X_M_cd._salat1.I70.MXPOEN _CD._SALAT1.NSD_LAT _CD._SALAT1.WCLK_WT
+  _CD._SALAT1.I70.P1 VNWP P11LL_CKT W=0.42U L=0.04U
X_M_cd._salat1.I82.MXNA1 _CD._SALAT1.NLAT_E SAE VSS VPW N11LL_CKT W=0.145U
+  L=0.04U
X_M_cd._salat1.I82.MXPA1 _CD._SALAT1.NLAT_E SAE VDDPE VNWP P11LL_CKT W=0.25U
+  L=0.04U
X_M_cd._salat1.MXN8 _CD._SALAT1.N1B _CD._SALAT1.NSD_LAT VSS VPW N11LL_CKT
+  W=0.145U L=0.04U
X_M_cd._salat1.MXN9 _CD._SALAT1.SD_LAT _CD._SALAT1.NLAT_E _CD._SALAT1.N1B VPW
+  N11LL_CKT W=0.145U L=0.04U
X_M_cd._salat1.MXP6 _CD._SALAT1.SD_LAT SAE _CD._SALAT1.P1B VNWP P11LL_CKT
+  W=0.47U L=0.04U
X_M_cd._salat1.MXP7 _CD._SALAT1.P1B _CD._SALAT1.NSD_LAT VDDPE VNWP P11LL_CKT
+  W=0.47U L=0.04U
X_M_cd._salat1.MXPs _CD._SALAT1.SD_LAT _CD.NSD _CD._SALAT1.P1A VNWP P11LL_CKT
+  W=0.56U L=0.04U
X_M_cd._salat1.MX_ndmy _CD._SALAT1.NSD_DUM _CD.SD _CD._SALAT1.N1A VPW
+  N11LL_CKT W=0.42U L=0.04U
X_M_cd._salat1.MX_nlat _CD._SALAT1.N1A SAE VSS VPW N11LL_CKT W=0.42U L=0.04U
X_M_cd._salat1.MX_pdmy _CD._SALAT1.NSD_DUM _CD.SD _CD._SALAT1.P1A VNWP
+  P11LL_CKT W=0.56U L=0.04U
X_M_cd._salat1.MX_pnsae _CD._SALAT1.P1A _CD._SALAT1.NLAT_E VDDPE VNWP
+  P11LL_CKT W=0.56U L=0.04U
X_M_cd._salat1.MX_sd_n _CD._SALAT1.SD_LAT _CD.NSD _CD._SALAT1.N1A VPW
+  N11LL_CKT W=0.42U L=0.04U
X_M_wr.I0.MXNA1 _WR.NE1 IADDR _WR.I0.N1 VPW N11LL_CKT W=0.42U L=0.04U
X_M_wr.I0.MXNA2 _WR.I0.N1 _WR.NWEN VSS VPW N11LL_CKT W=0.42U L=0.04U
X_M_wr.I0.MXPA1 _WR.NE1 IADDR VDDPE VNWP P11LL_CKT W=0.42U L=0.04U
X_M_wr.I0.MXPA2 _WR.NE1 _WR.NWEN VDDPE VNWP P11LL_CKT W=0.42U L=0.04U
X_M_wr.I115.MXNA1 _WR.NE0 NADDR _WR.I115.N1 VPW N11LL_CKT W=0.42U L=0.04U
X_M_wr.I115.MXNA2 _WR.I115.N1 _WR.NWEN VSS VPW N11LL_CKT W=0.42U L=0.04U
X_M_wr.I115.MXPA1 _WR.NE0 NADDR VDDPE VNWP P11LL_CKT W=0.42U L=0.04U
X_M_wr.I115.MXPA2 _WR.NE0 _WR.NWEN VDDPE VNWP P11LL_CKT W=0.42U L=0.04U
X_M_wr.I173.MXNA1 _WR.ND_LAT _WR.D_LAT VSS VPW N11LL_CKT W=0.28U L=0.04U
X_M_wr.I173.MXPA1 _WR.ND_LAT _WR.D_LAT VDDPE VNWP P11LL_CKT W=0.56U L=0.04U
X_M_wr.I176.MXNA1 SO SAO VSS VPW N11LL_CKT W=0.145U L=0.04U
X_M_wr.I176.MXPA1 SO SAO VDDPE VNWP P11LL_CKT W=0.145U L=0.04U
X_M_wr.I178.I169.MXNA1 _WR.I178.NWRONE _WR.NE1 VSS VPW N11LL_CKT W=0.18U
+  L=0.04U
X_M_wr.I178.I169.MXNA2 _WR.I178.NWRONE _WR.D_LAT VSS VPW N11LL_CKT W=0.18U
+  L=0.04U
X_M_wr.I178.I169.MXPA1 _WR.I178.NWRONE _WR.NE1 _WR.I178.I169.P1 VNWP P11LL_CKT
+  W=0.545U L=0.04U
X_M_wr.I178.I169.MXPA2 _WR.I178.I169.P1 _WR.D_LAT VDDPE VNWP P11LL_CKT
+  W=0.545U L=0.04U
X_M_wr.I178.I179.MXNA1 _WR.I178.NWRZERO _WR.NE1 VSS VPW N11LL_CKT W=0.18U
+  L=0.04U
X_M_wr.I178.I179.MXNA2 _WR.I178.NWRZERO _WR.ND_LAT VSS VPW N11LL_CKT W=0.18U
+  L=0.04U
X_M_wr.I178.I179.MXPA1 _WR.I178.NWRZERO _WR.NE1 _WR.I178.I179.P1 VNWP
+  P11LL_CKT W=0.545U L=0.04U
X_M_wr.I178.I179.MXPA2 _WR.I178.I179.P1 _WR.ND_LAT VDDPE VNWP P11LL_CKT
+  W=0.545U L=0.04U
X_M_wr.I178.MXN0 WRONE1 _WR.I178.NWRONE VSS VPW N11LL_CKT W=1.95U L=0.04U
X_M_wr.I178.MXN1 WRZERO1 _WR.I178.NWRZERO VSS VPW N11LL_CKT W=1.95U L=0.04U
X_M_wr.I178.MXP0 _WR.I178.HZWRONE _WR.NE1 VDDPE VNWP P11LL_CKT W=0.56U L=0.04U
X_M_wr.I178.MXP1 WRONE1 _WR.I178.NWRONE _WR.I178.HZWRONE VNWP P11LL_CKT
+  W=0.56U L=0.04U
X_M_wr.I178.MXP11 _WR.I178.HZWRONE _WR.WCLK VDDPE VNWP P11LL_CKT W=0.56U
+  L=0.04U
X_M_wr.I178.MXP12 _WR.I178.HZWRZERO _WR.WCLK VDDPE VNWP P11LL_CKT W=0.56U
+  L=0.04U
X_M_wr.I178.MXP2 WRZERO1 _WR.I178.NWRZERO _WR.I178.HZWRZERO VNWP P11LL_CKT
+  W=0.56U L=0.04U
X_M_wr.I178.MXP3 _WR.I178.HZWRZERO _WR.NE1 VDDPE VNWP P11LL_CKT W=0.56U
+  L=0.04U
X_M_wr.I179.I169.MXNA1 _WR.I179.NWRONE _WR.NE0 VSS VPW N11LL_CKT W=0.18U
+  L=0.04U
X_M_wr.I179.I169.MXNA2 _WR.I179.NWRONE _WR.D_LAT VSS VPW N11LL_CKT W=0.18U
+  L=0.04U
X_M_wr.I179.I169.MXPA1 _WR.I179.NWRONE _WR.NE0 _WR.I179.I169.P1 VNWP P11LL_CKT
+  W=0.545U L=0.04U
X_M_wr.I179.I169.MXPA2 _WR.I179.I169.P1 _WR.D_LAT VDDPE VNWP P11LL_CKT
+  W=0.545U L=0.04U
X_M_wr.I179.I179.MXNA1 _WR.I179.NWRZERO _WR.NE0 VSS VPW N11LL_CKT W=0.18U
+  L=0.04U
X_M_wr.I179.I179.MXNA2 _WR.I179.NWRZERO _WR.ND_LAT VSS VPW N11LL_CKT W=0.18U
+  L=0.04U
X_M_wr.I179.I179.MXPA1 _WR.I179.NWRZERO _WR.NE0 _WR.I179.I179.P1 VNWP
+  P11LL_CKT W=0.545U L=0.04U
X_M_wr.I179.I179.MXPA2 _WR.I179.I179.P1 _WR.ND_LAT VDDPE VNWP P11LL_CKT
+  W=0.545U L=0.04U
X_M_wr.I179.MXN0 WRONE0 _WR.I179.NWRONE VSS VPW N11LL_CKT W=1.95U L=0.04U
X_M_wr.I179.MXN1 WRZERO0 _WR.I179.NWRZERO VSS VPW N11LL_CKT W=1.95U L=0.04U
X_M_wr.I179.MXP0 _WR.I179.HZWRONE _WR.NE0 VDDPE VNWP P11LL_CKT W=0.56U L=0.04U
X_M_wr.I179.MXP1 WRONE0 _WR.I179.NWRONE _WR.I179.HZWRONE VNWP P11LL_CKT
+  W=0.56U L=0.04U
X_M_wr.I179.MXP11 _WR.I179.HZWRONE _WR.WCLK VDDPE VNWP P11LL_CKT W=0.56U
+  L=0.04U
X_M_wr.I179.MXP12 _WR.I179.HZWRZERO _WR.WCLK VDDPE VNWP P11LL_CKT W=0.56U
+  L=0.04U
X_M_wr.I179.MXP2 WRZERO0 _WR.I179.NWRZERO _WR.I179.HZWRZERO VNWP P11LL_CKT
+  W=0.56U L=0.04U
X_M_wr.I179.MXP3 _WR.I179.HZWRZERO _WR.NE0 VDDPE VNWP P11LL_CKT W=0.56U
+  L=0.04U
X_M_wr.I180.MXNA1 NADDR ADDR VSS VPW N11LL_CKT W=0.365U L=0.04U
X_M_wr.I180.MXPA1 NADDR ADDR VDDPE VNWP P11LL_CKT W=0.56U L=0.04U
X_M_wr.I181.MXNA1 IADDR NADDR VSS VPW N11LL_CKT W=0.365U L=0.04U
X_M_wr.I181.MXPA1 IADDR NADDR VDDPE VNWP P11LL_CKT W=0.56U L=0.04U
X_M_wr.I182.MXNA1 _WR.NWEN _WR.WEN_LAT VSS VPW N11LL_CKT W=0.145U L=0.04U
X_M_wr.I182.MXPA1 _WR.NWEN _WR.WEN_LAT VDDPE VNWP P11LL_CKT W=0.21U L=0.04U
X_M_wr.I205.MXNA1 D_WT _WR.ND_LAT VSS VPW N11LL_CKT W=0.17U L=0.04U
X_M_wr.I205.MXPA1 D_WT _WR.ND_LAT VDDPE VNWP P11LL_CKT W=0.25U L=0.04U
X_M_wr.IV_WrClk.MXNA1 _WR.WCLK NWCLK VSS VPW N11LL_CKT W=0.34U L=0.04U
X_M_wr.IV_WrClk.MXPA1 _WR.WCLK NWCLK VDDPE VNWP P11LL_CKT W=0.505U L=0.04U
X_M_wr._dlat.I1_0.MXNA1 _WR._DLAT.NSEL3 SEL_SI VSS VPW N11LL_CKT W=0.15U
+  L=0.04U
X_M_wr._dlat.I1_0.MXPA1 _WR._DLAT.NSEL3 SEL_SI VDDPE VNWP P11LL_CKT W=0.15U
+  L=0.04U
X_M_wr._dlat.I1_1.MXNA1 _WR._DLAT.NSEL2 SEL_TD VSS VPW N11LL_CKT W=0.15U
+  L=0.04U
X_M_wr._dlat.I1_1.MXPA1 _WR._DLAT.NSEL2 SEL_TD VDDPE VNWP P11LL_CKT W=0.15U
+  L=0.04U
X_M_wr._dlat.I1_2.MXNA1 _WR._DLAT.NSEL1 SEL_D VSS VPW N11LL_CKT W=0.15U
+  L=0.04U
X_M_wr._dlat.I1_2.MXPA1 _WR._DLAT.NSEL1 SEL_D VDDPE VNWP P11LL_CKT W=0.15U
+  L=0.04U
X_M_wr._dlat.I50.MXNA1 _WR.D_LAT _WR.DLAT_NQ VSS VPW N11LL_CKT W=0.28U L=0.04U
X_M_wr._dlat.I50.MXPA1 _WR.D_LAT _WR.DLAT_NQ VDDPE VNWP P11LL_CKT W=0.42U
+  L=0.04U
X_M_wr._dlat.I55.MXNA1 _WR._DLAT.I55.N1 _WR.D_LAT VSS VPW N11LL_CKT W=0.15U
+  L=0.04U
X_M_wr._dlat.I55.MXNOE _WR.DLAT_NQ _WR.WCLK _WR._DLAT.I55.N1 VPW N11LL_CKT
+  W=0.15U L=0.04U
X_M_wr._dlat.I55.MXPA1 _WR._DLAT.I55.P1 _WR.D_LAT VDDPE VNWP P11LL_CKT W=0.15U
+  L=0.04U
X_M_wr._dlat.I55.MXPOEN _WR.DLAT_NQ NWCLK _WR._DLAT.I55.P1 VNWP P11LL_CKT
+  W=0.15U L=0.04U
X_M_wr._dlat.I65.MXNOE _WR.DLAT_NQ NWCLK _WR._DLAT.ND VPW N11LL_CKT W=0.28U
+  L=0.04U
X_M_wr._dlat.I65.MXPOEN _WR.DLAT_NQ _WR.WCLK _WR._DLAT.ND VNWP P11LL_CKT
+  W=0.42U L=0.04U
X_M_wr._dlat.MXN1 _WR._DLAT.N2 TD VSS VPW N11LL_CKT W=0.28U L=0.04U
X_M_wr._dlat.MXN2 _WR._DLAT.N1 D VSS VPW N11LL_CKT W=0.28U L=0.04U
X_M_wr._dlat.MXN3 _WR._DLAT.ND SEL_D _WR._DLAT.N1 VPW N11LL_CKT W=0.28U
+  L=0.04U
X_M_wr._dlat.MXN4 _WR._DLAT.ND SEL_TD _WR._DLAT.N2 VPW N11LL_CKT W=0.28U
+  L=0.04U
X_M_wr._dlat.MXN5 _WR._DLAT.N3 SI VSS VPW N11LL_CKT W=0.28U L=0.04U
X_M_wr._dlat.MXN6 _WR._DLAT.ND SEL_SI _WR._DLAT.N3 VPW N11LL_CKT W=0.28U
+  L=0.04U
X_M_wr._dlat.MXP0 _WR._DLAT.ND _WR._DLAT.NSEL1 _WR._DLAT.P1 VNWP P11LL_CKT
+  W=0.42U L=0.04U
X_M_wr._dlat.MXP1 _WR._DLAT.P1 D VDDPE VNWP P11LL_CKT W=0.42U L=0.04U
X_M_wr._dlat.MXP2 _WR._DLAT.ND _WR._DLAT.NSEL2 _WR._DLAT.P2 VNWP P11LL_CKT
+  W=0.42U L=0.04U
X_M_wr._dlat.MXP3 _WR._DLAT.P2 TD VDDPE VNWP P11LL_CKT W=0.42U L=0.04U
X_M_wr._dlat.MXP4 _WR._DLAT.ND _WR._DLAT.NSEL3 _WR._DLAT.P3 VNWP P11LL_CKT
+  W=0.42U L=0.04U
X_M_wr._dlat.MXP5 _WR._DLAT.P3 SI VDDPE VNWP P11LL_CKT W=0.42U L=0.04U
X_M_wr._wenmux0.I0.MXNA1 _WR._WENMUX0.NDY _WR._WENMUX0.IDY _WR._WENMUX0.I0.N1
+  VPW N11LL_CKT W=0.17U L=0.04U
X_M_wr._wenmux0.I0.MXNA2 _WR._WENMUX0.I0.N1 DFTRAMBYP VSS VPW N11LL_CKT
+  W=0.17U L=0.04U
X_M_wr._wenmux0.I0.MXPA1 _WR._WENMUX0.NDY _WR._WENMUX0.IDY VDDPE VNWP
+  P11LL_CKT W=0.17U L=0.04U
X_M_wr._wenmux0.I0.MXPA2 _WR._WENMUX0.NDY DFTRAMBYP VDDPE VNWP P11LL_CKT
+  W=0.17U L=0.04U
X_M_wr._wenmux0.I50.MXNA1 _WR.WEN_LAT _WR.WE_LAT VSS VPW N11LL_CKT W=0.28U
+  L=0.04U
X_M_wr._wenmux0.I50.MXPA1 _WR.WEN_LAT _WR.WE_LAT VDDPE VNWP P11LL_CKT W=0.42U
+  L=0.04U