* 
* Copyright (c) 1993 - 2022 ARM. All Rights Reserved
* This file has been provided pursuant to a License Agreement
* containing restrictions on its use.  This file contains valuable
* trade secrets and proprietary information of ARM,
* and is protected by patents, copyright law
* and international treaties
* 
* Generated by bif2cdl 3.9.2
* Version: r1p1
* Name: High Density Single Port Register File RVT RVT Compiler | LOGIC0040LL 40nm Process 0.299um^2 Bit Cell
* Comment: This is a memory instance
* Configuration:  -activity_factor 50 -back_biasing off -bits 16 -b\
* Configuration: mux off -bus_notation on -check_instname on -diode\
* Configuration: s on -drive 6 -ema on -frequency 1.0 -instname RAM\
* Configuration: SP128X16 -left_bus_delim "[" -mux 2 -mvt "" -name_\
* Configuration: case upper -power_type otc -prefix "" -pwr_gnd_ren\
* Configuration: ame vddpe:VDDPE,vddce:VDDCE,vsse:VSSE -retention o\
* Configuration: n -right_bus_delim "]" -ser none -site_def off -to\
* Configuration: p_layer m5-m10 -words 128 -write_mask on -write_th\
* Configuration: ru off -corners ff_1p10v_1p10v_0c,ff_1p10v_1p10v_1\
* Configuration: 25c,ff_1p10v_1p10v_m40c,ff_1p21v_1p21v_0c,ff_1p21v\
* Configuration: _1p21v_125c,ff_1p21v_1p21v_m40c,ff_1p26v_1p26v_0c,\
* Configuration: ff_1p26v_1p26v_125c,ff_1p26v_1p26v_85c,ff_1p26v_1p\
* Configuration: 26v_m40c,ss_0p90v_0p90v_0c,ss_0p90v_0p90v_125c,ss_\
* Configuration: 0p90v_0p90v_m40c,ss_0p99v_0p99v_0c,ss_0p99v_0p99v_\
* Configuration: 125c,ss_0p99v_0p99v_m40c,ss_1p08v_1p08v_0c,ss_1p08\
* Configuration: v_1p08v_125c,ss_1p08v_1p08v_m40c,tt_1p00v_1p00v_12\
* Configuration: 5c,tt_1p00v_1p00v_25c,tt_1p00v_1p00v_85c,tt_1p10v_\
* Configuration: 1p10v_125c,tt_1p10v_1p10v_25c,tt_1p10v_1p10v_85c,t\
* Configuration: t_1p20v_1p20v_125c,tt_1p20v_1p20v_25c,tt_1p20v_1p2\
* Configuration: 0v_85c
* Codefile: 
* 
*
*.BIPOLAR
*.DIOAREA
*.DIOPERI
*
****
.SUBCKT RAMSP128X16BOTCAP2X2 D0 D1 LOG0 Q0 Q1 TD0 TD1 TWEN0 TWEN1 VDDCE VDDPE
+  VNWP VPW VSS VSSE WEN0 WEN1 WENY0 WENY1
** RAMSP128X16BOTCAP2X2: 8 flat devices **
DI13.D_Diode_X_dio VPW TD0 NDIO11LL AREA=0.035P PJ=0.78U
DI17.D_Diode_X_dio VPW D0 NDIO11LL AREA=0.035P PJ=0.78U
DI18.D_Diode_X_dio VPW TWEN0 NDIO11LL AREA=0.035P PJ=0.78U
DI19.D_Diode_X_dio VPW WEN0 NDIO11LL AREA=0.035P PJ=0.78U
DI77.D_Diode_X_dio VPW WEN1 NDIO11LL AREA=0.035P PJ=0.78U
DI78.D_Diode_X_dio VPW TWEN1 NDIO11LL AREA=0.035P PJ=0.78U
DI80.D_Diode_X_dio VPW D1 NDIO11LL AREA=0.035P PJ=0.78U
DI82.D_Diode_X_dio VPW TD1 NDIO11LL AREA=0.035P PJ=0.78U
.ENDS RAMSP128X16BOTCAP2X2
****
.SUBCKT RAMSP128X16BOTCAP2X2_RPT D0 D1 LOG0 Q0 Q1 VDDCE VNWP VPW WEN0 WEN1
+  WENY0 WENY1
** RAMSP128X16BOTCAP2X2_RPT: 8 flat devices **
XI0 D0 D1 LOG0 Q0 Q1 LOG0 LOG0 LOG0 LOG0 VDDCE VNWP VNWP VPW VPW VPW WEN0 WEN1
+  WENY0 WENY1 RAMSP128X16BOTCAP2X2
.ENDS RAMSP128X16BOTCAP2X2_RPT
****
.SUBCKT RAMSP128X16MIDBOT_BIST CA0 CA1 CA2 CAY0 CAY1 CAY2 CEN CENY CLK CRE1
+  CRE2 DFTRAMBYP DUMMY_DWL_R DUM_ACTP DUM_NACTC DUM_RETNVT EMA0 EMA1 EMA2
+  EMAW0 EMAW1 FCA1_0 FCA1_1 FCA1_2 FCA1_3 FCA1_4 FCA1_5 FCA1_6 FCA2_0 FCA2_1
+  FCA2_2 FCA2_3 FCA2_4 FCA2_5 FCA2_6 GWEN GWENY LA0 LA1 LA2 LAY0 LAY1 LAY2
+  LOG0 NWCLK PEN PENSI PENSO PGEN PSO0 PSO1 RA0 RA1 RA2 RA3 RA4 RA5 RAY0 RAY1
+  RAY2 RAY3 RAY4 RAY5 RDT RET1N RET2N SE SEL_D SEL_SI SEL_TD SO0 SO1 TCA0
+  TCA1 TCA2 TCEN TEN TGWEN TLA0 TLA1 TLA2 TPEN TRA0 TRA1 TRA2 TRA3 TRA4 TRA5
+  VDDCE VDDC_L VDDC_R VDDPE VDDP_CLKGEN VNWC VNWP VPW VSS VSSE
** RAMSP128X16MIDBOT_BIST: 60 flat devices **
DI100.D_Diode_X_dio VPW FCA1_3 NDIO11LL AREA=0.035P PJ=0.78U
DI102.D_Diode_X_dio VPW CRE1 NDIO11LL AREA=0.035P PJ=0.78U
DI104.D_Diode_X_dio VPW RA5 NDIO11LL AREA=0.035P PJ=0.78U
DI106.D_Diode_X_dio VPW RA3 NDIO11LL AREA=0.035P PJ=0.78U
DI107.D_Diode_X_dio VPW RA4 NDIO11LL AREA=0.035P PJ=0.78U
DI108.D_Diode_X_dio VPW LA2 NDIO11LL AREA=0.035P PJ=0.78U
DI110.D_Diode_X_dio VPW LA1 NDIO11LL AREA=0.035P PJ=0.78U
DI111.D_Diode_X_dio VPW RA2 NDIO11LL AREA=0.035P PJ=0.78U
DI112.D_Diode_X_dio VPW RA1 NDIO11LL AREA=0.035P PJ=0.78U
DI114.D_Diode_X_dio VPW LA0 NDIO11LL AREA=0.035P PJ=0.78U
DI115.D_Diode_X_dio VPW CA2 NDIO11LL AREA=0.035P PJ=0.78U
DI117.D_Diode_X_dio VPW RA0 NDIO11LL AREA=0.035P PJ=0.78U
DI118.D_Diode_X_dio VPW TPEN NDIO11LL AREA=0.035P PJ=0.78U
DI119.D_Diode_X_dio VPW PEN NDIO11LL AREA=0.035P PJ=0.78U
DI120.D_Diode_X_dio VPW TGWEN NDIO11LL AREA=0.035P PJ=0.78U
DI121.D_Diode_X_dio VPW TCEN NDIO11LL AREA=0.035P PJ=0.78U
DI122.D_Diode_X_dio VPW CA0 NDIO11LL AREA=0.035P PJ=0.78U
DI123.D_Diode_X_dio VPW PENSI NDIO11LL AREA=0.035P PJ=0.78U
DI124.D_Diode_X_dio VPW CA1 NDIO11LL AREA=0.035P PJ=0.78U
DI125.D_Diode_X_dio VPW TLA1 NDIO11LL AREA=0.035P PJ=0.78U
DI126.D_Diode_X_dio VPW TLA2 NDIO11LL AREA=0.035P PJ=0.78U
DI127.D_Diode_X_dio VPW TRA4 NDIO11LL AREA=0.035P PJ=0.78U
DI128.D_Diode_X_dio VPW TRA5 NDIO11LL AREA=0.035P PJ=0.78U
DI129.D_Diode_X_dio VPW TRA3 NDIO11LL AREA=0.035P PJ=0.78U
DI130.D_Diode_X_dio VPW TRA2 NDIO11LL AREA=0.035P PJ=0.78U
DI131.D_Diode_X_dio VPW TLA0 NDIO11LL AREA=0.035P PJ=0.78U
DI132.D_Diode_X_dio VPW TCA2 NDIO11LL AREA=0.035P PJ=0.78U
DI133.D_Diode_X_dio VPW TRA0 NDIO11LL AREA=0.035P PJ=0.78U
DI134.D_Diode_X_dio VPW TRA1 NDIO11LL AREA=0.035P PJ=0.78U
DI135.D_Diode_X_dio VPW TCA1 NDIO11LL AREA=0.035P PJ=0.78U
DI136.D_Diode_X_dio VPW TCA0 NDIO11LL AREA=0.035P PJ=0.78U
DI137.D_Diode_X_dio VPW GWEN NDIO11LL AREA=0.035P PJ=0.78U
DI138.D_Diode_X_dio VPW CEN NDIO11LL AREA=0.035P PJ=0.78U
DI139.D_Diode_X_dio VPW RDT NDIO11LL AREA=0.035P PJ=0.78U
DI140.D_Diode_X_dio VPW TEN NDIO11LL AREA=0.035P PJ=0.78U
DI142.D_Diode_X_dio VPW DFTRAMBYP NDIO11LL AREA=0.035P PJ=0.78U
DI146.D_Diode_X_dio VPW EMA2 NDIO11LL AREA=0.035P PJ=0.78U
DI147.D_Diode_X_dio VPW EMA1 NDIO11LL AREA=0.035P PJ=0.78U
DI148.D_Diode_X_dio VPW EMA0 NDIO11LL AREA=0.035P PJ=0.78U
DI151.D_Diode_X_dio VPW EMAW0 NDIO11LL AREA=0.035P PJ=0.78U
DI152.D_Diode_X_dio VPW EMAW1 NDIO11LL AREA=0.035P PJ=0.78U
DI154.D_Diode_X_dio VPW CLK NDIO11LL AREA=0.035P PJ=0.78U
DI157.D_Diode_X_dio VPW SE NDIO11LL AREA=0.035P PJ=0.78U
DI158.D_Diode_X_dio VPW PGEN NDIO11LL AREA=0.035P PJ=0.78U
DI159.D_Diode_X_dio VPW RET2N NDIO11LL AREA=0.035P PJ=0.78U
DI160.D_Diode_X_dio VPW RET1N NDIO11LL AREA=0.035P PJ=0.78U
DI61.D_Diode_X_dio VPW FCA1_0 NDIO11LL AREA=0.035P PJ=0.78U
DI65.D_Diode_X_dio VPW FCA1_1 NDIO11LL AREA=0.035P PJ=0.78U
DI66.D_Diode_X_dio VPW FCA1_2 NDIO11LL AREA=0.035P PJ=0.78U
DI77.D_Diode_X_dio VPW FCA2_6 NDIO11LL AREA=0.035P PJ=0.78U
DI90.D_Diode_X_dio VPW FCA2_4 NDIO11LL AREA=0.035P PJ=0.78U
DI91.D_Diode_X_dio VPW FCA2_5 NDIO11LL AREA=0.035P PJ=0.78U
DI92.D_Diode_X_dio VPW FCA2_2 NDIO11LL AREA=0.035P PJ=0.78U
DI93.D_Diode_X_dio VPW FCA2_1 NDIO11LL AREA=0.035P PJ=0.78U
DI94.D_Diode_X_dio VPW FCA2_3 NDIO11LL AREA=0.035P PJ=0.78U
DI95.D_Diode_X_dio VPW FCA1_6 NDIO11LL AREA=0.035P PJ=0.78U
DI96.D_Diode_X_dio VPW FCA1_4 NDIO11LL AREA=0.035P PJ=0.78U
DI97.D_Diode_X_dio VPW FCA1_5 NDIO11LL AREA=0.035P PJ=0.78U
DI98.D_Diode_X_dio VPW FCA2_0 NDIO11LL AREA=0.035P PJ=0.78U
DI99.D_Diode_X_dio VPW CRE2 NDIO11LL AREA=0.035P PJ=0.78U
.ENDS RAMSP128X16MIDBOT_BIST
****
.SUBCKT RAMSP128X16MIDBOT_BIST_WRAPT CA0 CA1 CA2 CAY0 CAY1 CAY2 CEN CENY CLK
+  CRE1 CRE2 DFTRAMBYP DUMMY_DWL_R DUM_ACTP DUM_NACTC DUM_RETNVT EMA0 EMA1
+  EMA2 EMAW0 EMAW1 FCA1_0 FCA1_1 FCA1_2 FCA1_3 FCA1_4 FCA1_5 FCA1_6 FCA2_0
+  FCA2_1 FCA2_2 FCA2_3 FCA2_4 FCA2_5 FCA2_6 GWEN GWENY LA0 LA1 LA2 LAY0 LAY1
+  LAY2 LOG0 NWCLK PEN PENSI PENSO PSO0 PSO1 RA0 RA1 RA2 RA3 RA4 RA5 RAY0 RAY1
+  RAY2 RAY3 RAY4 RAY5 RDT RET1N SE SEL_D SEL_SI SEL_TD SO0 SO1 TCA0 TCA1 TCA2
+  TCEN TEN TGWEN TLA0 TLA1 TLA2 TPEN TRA0 TRA1 TRA2 TRA3 TRA4 TRA5 VDDCE
+  VDDC_L VDDC_R VDDPE VDDP_CLKGEN VNWC VNWP VPW VSS VSSE
** RAMSP128X16MIDBOT_BIST_WRAPT: 60 flat devices **
XI0 CA0 CA1 CA2 CAY0 CAY1 CAY2 CEN CENY CLK CRE1 CRE2 DFTRAMBYP DUMMY_DWL_R
+  DUM_ACTP DUM_NACTC DUM_RETNVT EMA0 EMA1 EMA2 EMAW0 EMAW1 FCA1_0 FCA1_1
+  FCA1_2 FCA1_3 FCA1_4 FCA1_5 FCA1_6 FCA2_0 FCA2_1 FCA2_2 FCA2_3 FCA2_4
+  FCA2_5 FCA2_6 GWEN GWENY LA0 LA1 LA2 LAY0 LAY1 LAY2 LOG0 NWCLK PEN PENSI
+  PENSO PGEN PSO0 PSO1 RA0 RA1 RA2 RA3 RA4 RA5 RAY0 RAY1 RAY2 RAY3 RAY4 RAY5
+  RDT RET1N RET2N SE SEL_D SEL_SI SEL_TD SO0 SO1 TCA0 TCA1 TCA2 TCEN TEN
+  TGWEN TLA0 TLA1 TLA2 TPEN TRA0 TRA1 TRA2 TRA3 TRA4 TRA5 VDDCE VDDC_L VDDC_R
+  VDDPE VDDP_CLKGEN VNWC VNWP VPW VSS VSSE RAMSP128X16MIDBOT_BIST
.ENDS RAMSP128X16MIDBOT_BIST_WRAPT
****
.SUBCKT RAMSP128X16BOTCORNER LOG0 PSI SI VNWC VNWP VPW VSS
** RAMSP128X16BOTCORNER: 2 flat devices **
DI74.D_Diode_X_dio VPW PSI NDIO11LL AREA=0.035P PJ=0.78U
DI85.D_Diode_X_dio VPW SI NDIO11LL AREA=0.035P PJ=0.78U
.ENDS RAMSP128X16BOTCORNER
****
.SUBCKT RAMSP128X16BOTCORNER_WRAPT LOG0 PSI SI VNWC VNWP VPW VSS
** RAMSP128X16BOTCORNER_WRAPT: 2 flat devices **
XI0 LOG0 PSI SI VNWC VNWP VPW VSS RAMSP128X16BOTCORNER
.ENDS RAMSP128X16BOTCORNER_WRAPT
****
.SUBCKT RAMSP128X16BOTCAPROW CA0 CA1 CA2 CAY0 CAY1 CAY2 CEN CENY CLK CRE1 CRE2
+  D0_0 D0_1 D0_2 D0_3 D0_4 D0_5 D0_6 D0_7 D1_0 D1_1 D1_2 D1_3 D1_4 D1_5 D1_6
+  D1_7 DFTRAMBYP DUMMY_DWL_R DUM_ACTP DUM_NACTC DUM_RETNVT EMA0 EMA1 EMA2
+  EMAW0 EMAW1 FCA1_0 FCA1_1 FCA1_2 FCA1_3 FCA1_4 FCA1_5 FCA1_6 FCA2_0 FCA2_1
+  FCA2_2 FCA2_3 FCA2_4 FCA2_5 FCA2_6 GWEN GWENY LA0 LA1 LA2 LAY0 LAY1 LAY2
+  LOG0 NWCLK PEN PENSI PENSO PSI_0 PSI_1 PSO0 PSO1 Q0_0 Q0_1 Q0_2 Q0_3 Q0_4
+  Q0_5 Q0_6 Q0_7 Q1_0 Q1_1 Q1_2 Q1_3 Q1_4 Q1_5 Q1_6 Q1_7 RA0 RA1 RA2 RA3 RA4
+  RA5 RAY0 RAY1 RAY2 RAY3 RAY4 RAY5 RDT RET1N SE SEL_D SEL_SI SEL_TD SI_0
+  SI_1 SO0 SO1 TCA0 TCA1 TCA2 TCEN TEN TGWEN TLA0 TLA1 TLA2 TPEN TRA0 TRA1
+  TRA2 TRA3 TRA4 TRA5 VDDCE_0 VDDCE_1 VDDCE_2 VDDCE_3 VDDCE_4 VDDCE_5 VDDCE_6
+  VDDCE_7 VDDCE_8 VDDC_L VDDC_R VDDPE VDDP_CLKGEN VNWC_0 VNWC_1 VNWC_2 VNWP
+  VPW VSSE WEN0_0 WEN0_1 WEN0_2 WEN0_3 WEN0_4 WEN0_5 WEN0_6 WEN0_7 WEN1_0
+  WEN1_1 WEN1_2 WEN1_3 WEN1_4 WEN1_5 WEN1_6 WEN1_7 WENY0_0 WENY0_1 WENY0_2
+  WENY0_3 WENY0_4 WENY0_5 WENY0_6 WENY0_7 WENY1_0 WENY1_1 WENY1_2 WENY1_3
+  WENY1_4 WENY1_5 WENY1_6 WENY1_7
** RAMSP128X16BOTCAPROW: 128 flat devices **
XCENTRE CA0 CA1 CA2 CAY0 CAY1 CAY2 CEN CENY CLK CRE1 CRE2 DFTRAMBYP
+  DUMMY_DWL_R DUM_ACTP DUM_NACTC DUM_RETNVT EMA0 EMA1 EMA2 EMAW0 EMAW1 FCA1_0
+  FCA1_1 FCA1_2 FCA1_3 FCA1_4 FCA1_5 FCA1_6 FCA2_0 FCA2_1 FCA2_2 FCA2_3
+  FCA2_4 FCA2_5 FCA2_6 GWEN GWENY LA0 LA1 LA2 LAY0 LAY1 LAY2 LOG0 NWCLK PEN
+  PENSI PENSO PSO0 PSO1 RA0 RA1 RA2 RA3 RA4 RA5 RAY0 RAY1 RAY2 RAY3 RAY4 RAY5
+  RDT RET1N SE SEL_D SEL_SI SEL_TD SO0 SO1 TCA0 TCA1 TCA2 TCEN TEN TGWEN TLA0
+  TLA1 TLA2 TPEN TRA0 TRA1 TRA2 TRA3 TRA4 TRA5 VDDCE_4 VDDC_L VDDC_R VDDPE
+  VDDP_CLKGEN VNWC_1 VNWP VPW VPW VSSE RAMSP128X16MIDBOT_BIST_WRAPT
XLEFT LOG0 PSI_0 SI_0 VNWC_0 VNWP VPW VPW RAMSP128X16BOTCORNER_WRAPT
XLEFT_COL_0 D0_0 D1_0 LOG0 Q0_0 Q1_0 VDDCE_0 VNWP VPW WEN0_0 WEN1_0 WENY0_0
+  WENY1_0 RAMSP128X16BOTCAP2X2_RPT
XLEFT_COL_1 D0_1 D1_1 LOG0 Q0_1 Q1_1 VDDCE_1 VNWP VPW WEN0_1 WEN1_1 WENY0_1
+  WENY1_1 RAMSP128X16BOTCAP2X2_RPT
XLEFT_COL_2 D0_2 D1_2 LOG0 Q0_2 Q1_2 VDDCE_2 VNWP VPW WEN0_2 WEN1_2 WENY0_2
+  WENY1_2 RAMSP128X16BOTCAP2X2_RPT
XLEFT_COL_3 D0_3 D1_3 LOG0 Q0_3 Q1_3 VDDCE_3 VNWP VPW WEN0_3 WEN1_3 WENY0_3
+  WENY1_3 RAMSP128X16BOTCAP2X2_RPT
XRIGHT LOG0 PSI_1 SI_1 VNWC_2 VNWP VPW VPW RAMSP128X16BOTCORNER_WRAPT
XRIGHT_COL_0 D0_4 D1_4 LOG0 Q0_4 Q1_4 VDDCE_5 VNWP VPW WEN0_4 WEN1_4 WENY0_4
+  WENY1_4 RAMSP128X16BOTCAP2X2_RPT
XRIGHT_COL_1 D0_5 D1_5 LOG0 Q0_5 Q1_5 VDDCE_6 VNWP VPW WEN0_5 WEN1_5 WENY0_5
+  WENY1_5 RAMSP128X16BOTCAP2X2_RPT
XRIGHT_COL_2 D0_6 D1_6 LOG0 Q0_6 Q1_6 VDDCE_7 VNWP VPW WEN0_6 WEN1_6 WENY0_6
+  WENY1_6 RAMSP128X16BOTCAP2X2_RPT
XRIGHT_COL_3 D0_7 D1_7 LOG0 Q0_7 Q1_7 VDDCE_8 VNWP VPW WEN0_7 WEN1_7 WENY0_7
+  WENY1_7 RAMSP128X16BOTCAP2X2_RPT
.ENDS RAMSP128X16BOTCAPROW
****
.SUBCKT RAMSP128X16COLM2X2_BIST_WM BL0 BL1 BL2 BL3 BLPRECH D0 D1 DFTRAMBYP
+  DUM_NWCLK_L DUM_NWCLK_R DUM_SEL_D_L DUM_SEL_D_R DUM_SEL_SI_L DUM_SEL_SI_R
+  DUM_SEL_TD_L DUM_SEL_TD_R DWL LOG0 NACT_CC NBL0 NBL1 NBL2 NBL3 NSAE NWCLK
+  NWCLK_WT NYR0 NYR1 SAO0 SAO1 SAPRECH SEL_D SEL_SI SEL_TD SI SO TD0 TD1 TE
+  TWEN0 TWEN0_PRG TWEN1 TWEN1_PRG TWENL TWENR VDDC VDDCE VDDPE VNWC VNWP VPW
+  VSS VSSE WEN0 WEN0_PRG WEN1 WEN1_PRG WENL WENR WENY0 WENY1 YW0 YW1
** RAMSP128X16COLM2X2_BIST_WM: 265 flat devices **
X_M_cd.I34.MXNA1 _CD.NBLPRECH BLPRECH VSS VPW N11LL_CKT W=0.395U L=0.04U
X_M_cd.I34.MXPA1 _CD.NBLPRECH BLPRECH VDDPE VNWP P11LL_CKT W=0.87U L=0.04U
X_M_cd.I46.MXNA1 _CD.SAE NSAE VSS VPW N11LL_CKT W=0.4U L=0.04U
X_M_cd.I46.MXPA1 _CD.SAE NSAE VDDPE VNWP P11LL_CKT W=0.53U L=0.04U
X_M_cd.I56.MXNA1 _CD.NSAPRECH SAPRECH _CD.I56.N1 VPW N11LL_CKT W=0.21U L=0.04U
X_M_cd.I56.MXNA2 _CD.I56.N1 NSAE VSS VPW N11LL_CKT W=0.21U L=0.04U
X_M_cd.I56.MXPA1 _CD.NSAPRECH SAPRECH VDDPE VNWP P11LL_CKT W=0.63U L=0.04U
X_M_cd.I56.MXPA2 _CD.NSAPRECH NSAE VDDPE VNWP P11LL_CKT W=0.375U L=0.04U
X_M_cd._cdrw0._mx0.MXN0 NBL0 YW0 WRZERO0 VPW N11LL_CKT W=0.58U L=0.04U
X_M_cd._cdrw0._mx0.MXN1 BL0 YW0 WRONE0 VPW N11LL_CKT W=0.58U L=0.04U
X_M_cd._cdrw0._mx0.MXP1 NBL0 _CD.NBLPRECH VDDPE VNWC P11LL_CKT W=0.45U L=0.04U
X_M_cd._cdrw0._mx0.MXP10 _CD._CDRW0._MX0.VVDP NACT_CC VDDPE VNWC P11LL_CKT
+  W=0.28U L=0.04U
X_M_cd._cdrw0._mx0.MXP3 _CD.NSD0 NYR0 NBL0 VNWC P11LL_CKT W=0.475U L=0.04U
X_M_cd._cdrw0._mx0.MXP4 _CD.SD0 NYR0 BL0 VNWC P11LL_CKT W=0.475U L=0.04U
X_M_cd._cdrw0._mx0.MXP5 NBL0 BL0 _CD._CDRW0._MX0.VVDP VNWC P11LL_CKT W=0.28U
+  L=0.04U
X_M_cd._cdrw0._mx0.MXP7 BL0 _CD.NBLPRECH VDDPE VNWC P11LL_CKT W=0.45U L=0.04U
X_M_cd._cdrw0._mx0.MXP8 NBL0 _CD.NBLPRECH BL0 VNWC P11LL_CKT W=0.45U L=0.04U
X_M_cd._cdrw0._mx0.MXP9 BL0 NBL0 _CD._CDRW0._MX0.VVDP VNWC P11LL_CKT W=0.28U
+  L=0.04U
X_M_cd._cdrw0._mx1.MXN0 NBL1 YW1 WRZERO0 VPW N11LL_CKT W=0.58U L=0.04U
X_M_cd._cdrw0._mx1.MXN1 BL1 YW1 WRONE0 VPW N11LL_CKT W=0.58U L=0.04U
X_M_cd._cdrw0._mx1.MXP1 NBL1 _CD.NBLPRECH VDDPE VNWC P11LL_CKT W=0.45U L=0.04U
X_M_cd._cdrw0._mx1.MXP10 _CD._CDRW0._MX1.VVDP NACT_CC VDDPE VNWC P11LL_CKT
+  W=0.28U L=0.04U
X_M_cd._cdrw0._mx1.MXP3 _CD.NSD0 NYR1 NBL1 VNWC P11LL_CKT W=0.475U L=0.04U
X_M_cd._cdrw0._mx1.MXP4 _CD.SD0 NYR1 BL1 VNWC P11LL_CKT W=0.475U L=0.04U
X_M_cd._cdrw0._mx1.MXP5 NBL1 BL1 _CD._CDRW0._MX1.VVDP VNWC P11LL_CKT W=0.28U
+  L=0.04U
X_M_cd._cdrw0._mx1.MXP7 BL1 _CD.NBLPRECH VDDPE VNWC P11LL_CKT W=0.45U L=0.04U
X_M_cd._cdrw0._mx1.MXP8 NBL1 _CD.NBLPRECH BL1 VNWC P11LL_CKT W=0.45U L=0.04U
X_M_cd._cdrw0._mx1.MXP9 BL1 NBL1 _CD._CDRW0._MX1.VVDP VNWC P11LL_CKT W=0.28U
+  L=0.04U
X_M_cd._cdrw1._mx0.MXN0 NBL2 YW0 WRZERO1 VPW N11LL_CKT W=0.58U L=0.04U
X_M_cd._cdrw1._mx0.MXN1 BL2 YW0 WRONE1 VPW N11LL_CKT W=0.58U L=0.04U
X_M_cd._cdrw1._mx0.MXP1 NBL2 _CD.NBLPRECH VDDPE VNWC P11LL_CKT W=0.45U L=0.04U
X_M_cd._cdrw1._mx0.MXP10 _CD._CDRW1._MX0.VVDP NACT_CC VDDPE VNWC P11LL_CKT
+  W=0.28U L=0.04U
X_M_cd._cdrw1._mx0.MXP3 _CD.NSD1 NYR0 NBL2 VNWC P11LL_CKT W=0.475U L=0.04U
X_M_cd._cdrw1._mx0.MXP4 _CD.SD1 NYR0 BL2 VNWC P11LL_CKT W=0.475U L=0.04U
X_M_cd._cdrw1._mx0.MXP5 NBL2 BL2 _CD._CDRW1._MX0.VVDP VNWC P11LL_CKT W=0.28U
+  L=0.04U
X_M_cd._cdrw1._mx0.MXP7 BL2 _CD.NBLPRECH VDDPE VNWC P11LL_CKT W=0.45U L=0.04U
X_M_cd._cdrw1._mx0.MXP8 NBL2 _CD.NBLPRECH BL2 VNWC P11LL_CKT W=0.45U L=0.04U
X_M_cd._cdrw1._mx0.MXP9 BL2 NBL2 _CD._CDRW1._MX0.VVDP VNWC P11LL_CKT W=0.28U
+  L=0.04U
X_M_cd._cdrw1._mx1.MXN0 NBL3 YW1 WRZERO1 VPW N11LL_CKT W=0.58U L=0.04U
X_M_cd._cdrw1._mx1.MXN1 BL3 YW1 WRONE1 VPW N11LL_CKT W=0.58U L=0.04U
X_M_cd._cdrw1._mx1.MXP1 NBL3 _CD.NBLPRECH VDDPE VNWC P11LL_CKT W=0.45U L=0.04U
X_M_cd._cdrw1._mx1.MXP10 _CD._CDRW1._MX1.VVDP NACT_CC VDDPE VNWC P11LL_CKT
+  W=0.28U L=0.04U
X_M_cd._cdrw1._mx1.MXP3 _CD.NSD1 NYR1 NBL3 VNWC P11LL_CKT W=0.475U L=0.04U
X_M_cd._cdrw1._mx1.MXP4 _CD.SD1 NYR1 BL3 VNWC P11LL_CKT W=0.475U L=0.04U
X_M_cd._cdrw1._mx1.MXP5 NBL3 BL3 _CD._CDRW1._MX1.VVDP VNWC P11LL_CKT W=0.28U
+  L=0.04U
X_M_cd._cdrw1._mx1.MXP7 BL3 _CD.NBLPRECH VDDPE VNWC P11LL_CKT W=0.45U L=0.04U
X_M_cd._cdrw1._mx1.MXP8 NBL3 _CD.NBLPRECH BL3 VNWC P11LL_CKT W=0.45U L=0.04U
X_M_cd._cdrw1._mx1.MXP9 BL3 NBL3 _CD._CDRW1._MX1.VVDP VNWC P11LL_CKT W=0.28U
+  L=0.04U
X_M_cd._sa0.MXN17 _CD.NSD0 _CD.SD0 _CD.NET125 VPW N11LL_CKT W=1.86U L=0.085U
X_M_cd._sa0.MXN18 _CD.NET125 _CD.SAE VSS VPW N11LL_CKT W=0.93U L=0.04U
X_M_cd._sa0.MXN19 _CD.SD0 _CD.NSD0 _CD.NET125 VPW N11LL_CKT W=1.86U L=0.085U
X_M_cd._sa0.MXP24 _CD.NSD0 _CD.NSAPRECH VDDPE VNWP P11LL_CKT W=0.46U L=0.04U
X_M_cd._sa0.MXP25 _CD.NSD0 _CD.NSAPRECH _CD.SD0 VNWP P11LL_CKT W=0.46U L=0.04U
X_M_cd._sa0.MXP26 _CD.SD0 _CD.NSAPRECH VDDPE VNWP P11LL_CKT W=0.46U L=0.04U
X_M_cd._sa0.MXP27 _CD.NSD0 _CD.SD0 VDDPE VNWP P11LL_CKT W=0.465U L=0.04U
X_M_cd._sa0.MXP28 _CD.SD0 _CD.NSD0 VDDPE VNWP P11LL_CKT W=0.465U L=0.04U
X_M_cd._sa1.MXN17 _CD.NSD1 _CD.SD1 _CD.NET116 VPW N11LL_CKT W=1.86U L=0.085U
X_M_cd._sa1.MXN18 _CD.NET116 _CD.SAE VSS VPW N11LL_CKT W=0.93U L=0.04U
X_M_cd._sa1.MXN19 _CD.SD1 _CD.NSD1 _CD.NET116 VPW N11LL_CKT W=1.86U L=0.085U
X_M_cd._sa1.MXP24 _CD.NSD1 _CD.NSAPRECH VDDPE VNWP P11LL_CKT W=0.46U L=0.04U
X_M_cd._sa1.MXP25 _CD.NSD1 _CD.NSAPRECH _CD.SD1 VNWP P11LL_CKT W=0.46U L=0.04U
X_M_cd._sa1.MXP26 _CD.SD1 _CD.NSAPRECH VDDPE VNWP P11LL_CKT W=0.46U L=0.04U
X_M_cd._sa1.MXP27 _CD.NSD1 _CD.SD1 VDDPE VNWP P11LL_CKT W=0.465U L=0.04U
X_M_cd._sa1.MXP28 _CD.SD1 _CD.NSD1 VDDPE VNWP P11LL_CKT W=0.465U L=0.04U
X_M_cd._salat0.I62.MXNA1 SAO0 _CD._SALAT0.SD_LAT VSS VPW N11LL_CKT W=0.505U
+  L=0.04U
X_M_cd._salat0.I62.MXPA1 SAO0 _CD._SALAT0.SD_LAT VDDPE VNWP P11LL_CKT W=0.61U
+  L=0.04U
X_M_cd._salat0.I68.MXNA1 _CD._SALAT0.WCLK_WT NWCLK_WT VSS VPW N11LL_CKT
+  W=0.145U L=0.04U
X_M_cd._salat0.I68.MXPA1 _CD._SALAT0.WCLK_WT NWCLK_WT VDDPE VNWP P11LL_CKT
+  W=0.21U L=0.04U
X_M_cd._salat0.I69.MXNA1 _CD._SALAT0.I69.N1 NET141 VSS VPW N11LL_CKT W=0.28U
+  L=0.04U
X_M_cd._salat0.I69.MXNOE _CD._SALAT0.NSD_LAT _CD._SALAT0.WCLK_WT
+  _CD._SALAT0.I69.N1 VPW N11LL_CKT W=0.28U L=0.04U
X_M_cd._salat0.I69.MXPA1 _CD._SALAT0.I69.P1 NET141 VDDPE VNWP P11LL_CKT
+  W=0.42U L=0.04U
X_M_cd._salat0.I69.MXPOEN _CD._SALAT0.NSD_LAT NWCLK_WT _CD._SALAT0.I69.P1 VNWP
+  P11LL_CKT W=0.42U L=0.04U
X_M_cd._salat0.I70.MXNA1 _CD._SALAT0.I70.N1 _CD._SALAT0.SD_LAT VSS VPW
+  N11LL_CKT W=0.28U L=0.04U
X_M_cd._salat0.I70.MXNOE _CD._SALAT0.NSD_LAT NWCLK_WT _CD._SALAT0.I70.N1 VPW
+  N11LL_CKT W=0.28U L=0.04U
X_M_cd._salat0.I70.MXPA1 _CD._SALAT0.I70.P1 _CD._SALAT0.SD_LAT VDDPE VNWP
+  P11LL_CKT W=0.42U L=0.04U
X_M_cd._salat0.I70.MXPOEN _CD._SALAT0.NSD_LAT _CD._SALAT0.WCLK_WT
+  _CD._SALAT0.I70.P1 VNWP P11LL_CKT W=0.42U L=0.04U
X_M_cd._salat0.I82.MXNA1 _CD._SALAT0.NLAT_E _CD.SAE VSS VPW N11LL_CKT W=0.145U
+  L=0.04U
X_M_cd._salat0.I82.MXPA1 _CD._SALAT0.NLAT_E _CD.SAE VDDPE VNWP P11LL_CKT
+  W=0.25U L=0.04U
X_M_cd._salat0.MXN8 _CD._SALAT0.N1B _CD._SALAT0.NSD_LAT VSS VPW N11LL_CKT
+  W=0.145U L=0.04U
X_M_cd._salat0.MXN9 _CD._SALAT0.SD_LAT _CD._SALAT0.NLAT_E _CD._SALAT0.N1B VPW
+  N11LL_CKT W=0.145U L=0.04U
X_M_cd._salat0.MXP6 _CD._SALAT0.SD_LAT _CD.SAE _CD._SALAT0.P1B VNWP P11LL_CKT
+  W=0.47U L=0.04U
X_M_cd._salat0.MXP7 _CD._SALAT0.P1B _CD._SALAT0.NSD_LAT VDDPE VNWP P11LL_CKT
+  W=0.47U L=0.04U
X_M_cd._salat0.MXPs _CD._SALAT0.SD_LAT _CD.NSD0 _CD._SALAT0.P1A VNWP P11LL_CKT
+  W=0.56U L=0.04U
X_M_cd._salat0.MX_ndmy _CD._SALAT0.NSD_DUM _CD.SD0 _CD._SALAT0.N1A VPW
+  N11LL_CKT W=0.42U L=0.04U
X_M_cd._salat0.MX_nlat _CD._SALAT0.N1A _CD.SAE VSS VPW N11LL_CKT W=0.42U
+  L=0.04U
X_M_cd._salat0.MX_pdmy _CD._SALAT0.NSD_DUM _CD.SD0 _CD._SALAT0.P1A VNWP
+  P11LL_CKT W=0.56U L=0.04U
X_M_cd._salat0.MX_pnsae _CD._SALAT0.P1A _CD._SALAT0.NLAT_E VDDPE VNWP
+  P11LL_CKT W=0.56U L=0.04U
X_M_cd._salat0.MX_sd_n _CD._SALAT0.SD_LAT _CD.NSD0 _CD._SALAT0.N1A VPW
+  N11LL_CKT W=0.42U L=0.04U
X_M_cd._salat1.I62.MXNA1 SAO1 _CD._SALAT1.SD_LAT VSS VPW N11LL_CKT W=0.505U
+  L=0.04U
X_M_cd._salat1.I62.MXPA1 SAO1 _CD._SALAT1.SD_LAT VDDPE VNWP P11LL_CKT W=0.61U
+  L=0.04U
X_M_cd._salat1.I68.MXNA1 _CD._SALAT1.WCLK_WT NWCLK_WT VSS VPW N11LL_CKT
+  W=0.145U L=0.04U
X_M_cd._salat1.I68.MXPA1 _CD._SALAT1.WCLK_WT NWCLK_WT VDDPE VNWP P11LL_CKT
+  W=0.21U L=0.04U
X_M_cd._salat1.I69.MXNA1 _CD._SALAT1.I69.N1 D_WT VSS VPW N11LL_CKT W=0.28U
+  L=0.04U
X_M_cd._salat1.I69.MXNOE _CD._SALAT1.NSD_LAT _CD._SALAT1.WCLK_WT
+  _CD._SALAT1.I69.N1 VPW N11LL_CKT W=0.28U L=0.04U
X_M_cd._salat1.I69.MXPA1 _CD._SALAT1.I69.P1 D_WT VDDPE VNWP P11LL_CKT W=0.42U
+  L=0.04U
X_M_cd._salat1.I69.MXPOEN _CD._SALAT1.NSD_LAT NWCLK_WT _CD._SALAT1.I69.P1 VNWP
+  P11LL_CKT W=0.42U L=0.04U
X_M_cd._salat1.I70.MXNA1 _CD._SALAT1.I70.N1 _CD._SALAT1.SD_LAT VSS VPW
+  N11LL_CKT W=0.28U L=0.04U
X_M_cd._salat1.I70.MXNOE _CD._SALAT1.NSD_LAT NWCLK_WT _CD._SALAT1.I70.N1 VPW
+  N11LL_CKT W=0.28U L=0.04U
X_M_cd._salat1.I70.MXPA1 _CD._SALAT1.I70.P1 _CD._SALAT1.SD_LAT VDDPE VNWP
+  P11LL_CKT W=0.42U L=0.04U
X_M_cd._salat1.I70.MXPOEN _CD._SALAT1.NSD_LAT _CD._SALAT1.WCLK_WT
+  _CD._SALAT1.I70.P1 VNWP P11LL_CKT W=0.42U L=0.04U
X_M_cd._salat1.I82.MXNA1 _CD._SALAT1.NLAT_E _CD.SAE VSS VPW N11LL_CKT W=0.145U
+  L=0.04U
X_M_cd._salat1.I82.MXPA1 _CD._SALAT1.NLAT_E _CD.SAE VDDPE VNWP P11LL_CKT
+  W=0.25U L=0.04U
X_M_cd._salat1.MXN8 _CD._SALAT1.N1B _CD._SALAT1.NSD_LAT VSS VPW N11LL_CKT
+  W=0.145U L=0.04U
X_M_cd._salat1.MXN9 _CD._SALAT1.SD_LAT _CD._SALAT1.NLAT_E _CD._SALAT1.N1B VPW
+  N11LL_CKT W=0.145U L=0.04U
X_M_cd._salat1.MXP6 _CD._SALAT1.SD_LAT _CD.SAE _CD._SALAT1.P1B VNWP P11LL_CKT
+  W=0.47U L=0.04U
X_M_cd._salat1.MXP7 _CD._SALAT1.P1B _CD._SALAT1.NSD_LAT VDDPE VNWP P11LL_CKT
+  W=0.47U L=0.04U
X_M_cd._salat1.MXPs _CD._SALAT1.SD_LAT _CD.NSD1 _CD._SALAT1.P1A VNWP P11LL_CKT
+  W=0.56U L=0.04U
X_M_cd._salat1.MX_ndmy _CD._SALAT1.NSD_DUM _CD.SD1 _CD._SALAT1.N1A VPW
+  N11LL_CKT W=0.42U L=0.04U
X_M_cd._salat1.MX_nlat _CD._SALAT1.N1A _CD.SAE VSS VPW N11LL_CKT W=0.42U
+  L=0.04U
X_M_cd._salat1.MX_pdmy _CD._SALAT1.NSD_DUM _CD.SD1 _CD._SALAT1.P1A VNWP
+  P11LL_CKT W=0.56U L=0.04U
X_M_cd._salat1.MX_pnsae _CD._SALAT1.P1A _CD._SALAT1.NLAT_E VDDPE VNWP
+  P11LL_CKT W=0.56U L=0.04U
X_M_cd._salat1.MX_sd_n _CD._SALAT1.SD_LAT _CD.NSD1 _CD._SALAT1.N1A VPW
+  N11LL_CKT W=0.42U L=0.04U
X_M_cd._wl_load.MXNpgl VSS DWL VSS VPW N11LL_CKT W=1.2U L=0.06U
X_M_wr.I183.MXNA1 NET141 _WR.ND_LAT0 VSS VPW N11LL_CKT W=0.17U L=0.04U
X_M_wr.I183.MXPA1 NET141 _WR.ND_LAT0 VDDPE VNWP P11LL_CKT W=0.255U L=0.04U
X_M_wr.I185.MXNA1 SO SAO0 VSS VPW N11LL_CKT W=0.145U L=0.04U
X_M_wr.I185.MXPA1 SO SAO0 VDDPE VNWP P11LL_CKT W=0.145U L=0.04U
X_M_wr.I186.MXNA1 _WR.ND_LAT0 _WR.D_LAT0 VSS VPW N11LL_CKT W=0.17U L=0.04U
X_M_wr.I186.MXPA1 _WR.ND_LAT0 _WR.D_LAT0 VDDPE VNWP P11LL_CKT W=0.255U L=0.04U
X_M_wr.I192.MXNA1 _WR.ND_LAT1 _WR.D_LAT1 VSS VPW N11LL_CKT W=0.17U L=0.04U
X_M_wr.I192.MXPA1 _WR.ND_LAT1 _WR.D_LAT1 VDDPE VNWP P11LL_CKT W=0.255U L=0.04U
X_M_wr.I194.MXNA1 D_WT _WR.ND_LAT1 VSS VPW N11LL_CKT W=0.17U L=0.04U
X_M_wr.I194.MXPA1 D_WT _WR.ND_LAT1 VDDPE VNWP P11LL_CKT W=0.255U L=0.04U
X_M_wr.I195.MXNA1 _WR.INWCLK _WR.WCLK VSS VPW N11LL_CKT W=0.28U L=0.04U
X_M_wr.I195.MXPA1 _WR.INWCLK _WR.WCLK VDDPE VNWP P11LL_CKT W=0.56U L=0.04U
X_M_wr.I196.MXNA1 _WR.SI0 SAO1 VSS VPW N11LL_CKT W=0.145U L=0.04U
X_M_wr.I196.MXPA1 _WR.SI0 SAO1 VDDPE VNWP P11LL_CKT W=0.145U L=0.04U
X_M_wr.IV_WrClk.MXNA1 _WR.WCLK NWCLK VSS VPW N11LL_CKT W=0.28U L=0.04U
X_M_wr.IV_WrClk.MXPA1 _WR.WCLK NWCLK VDDPE VNWP P11LL_CKT W=0.56U L=0.04U
X_M_wr._dlat0.I1_0.MXNA1 _WR._DLAT0.NSEL3 SEL_SI VSS VPW N11LL_CKT W=0.145U
+  L=0.04U
X_M_wr._dlat0.I1_0.MXPA1 _WR._DLAT0.NSEL3 SEL_SI VDDPE VNWP P11LL_CKT W=0.145U
+  L=0.04U
X_M_wr._dlat0.I1_1.MXNA1 _WR._DLAT0.NSEL2 SEL_TD VSS VPW N11LL_CKT W=0.145U
+  L=0.04U
X_M_wr._dlat0.I1_1.MXPA1 _WR._DLAT0.NSEL2 SEL_TD VDDPE VNWP P11LL_CKT W=0.145U
+  L=0.04U
X_M_wr._dlat0.I1_2.MXNA1 _WR._DLAT0.NSEL1 SEL_D VSS VPW N11LL_CKT W=0.145U
+  L=0.04U
X_M_wr._dlat0.I1_2.MXPA1 _WR._DLAT0.NSEL1 SEL_D VDDPE VNWP P11LL_CKT W=0.145U
+  L=0.04U
X_M_wr._dlat0.I50.MXNA1 _WR.D_LAT0 _WR.DLAT_NQ0 VSS VPW N11LL_CKT W=0.28U
+  L=0.04U
X_M_wr._dlat0.I50.MXPA1 _WR.D_LAT0 _WR.DLAT_NQ0 VDDPE VNWP P11LL_CKT W=0.42U
+  L=0.04U
X_M_wr._dlat0.I55.MXNA1 _WR._DLAT0.I55.N1 _WR.D_LAT0 VSS VPW N11LL_CKT W=0.15U
+  L=0.04U
X_M_wr._dlat0.I55.MXNOE _WR.DLAT_NQ0 _WR.WCLK _WR._DLAT0.I55.N1 VPW N11LL_CKT
+  W=0.15U L=0.04U
X_M_wr._dlat0.I55.MXPA1 _WR._DLAT0.I55.P1 _WR.D_LAT0 VDDPE VNWP P11LL_CKT
+  W=0.15U L=0.04U
X_M_wr._dlat0.I55.MXPOEN _WR.DLAT_NQ0 _WR.INWCLK _WR._DLAT0.I55.P1 VNWP
+  P11LL_CKT W=0.15U L=0.04U
X_M_wr._dlat0.I65.MXNOE _WR.DLAT_NQ0 _WR.INWCLK _WR._DLAT0.ND VPW N11LL_CKT
+  W=0.28U L=0.04U
X_M_wr._dlat0.I65.MXPOEN _WR.DLAT_NQ0 _WR.WCLK _WR._DLAT0.ND VNWP P11LL_CKT
+  W=0.42U L=0.04U
X_M_wr._dlat0.MXN1 _WR._DLAT0.N2 TD0 VSS VPW N11LL_CKT W=0.28U L=0.04U
X_M_wr._dlat0.MXN2 _WR._DLAT0.N1 D0 VSS VPW N11LL_CKT W=0.28U L=0.04U
X_M_wr._dlat0.MXN3 _WR._DLAT0.ND SEL_D _WR._DLAT0.N1 VPW N11LL_CKT W=0.28U
+  L=0.04U
X_M_wr._dlat0.MXN4 _WR._DLAT0.ND SEL_TD _WR._DLAT0.N2 VPW N11LL_CKT W=0.28U
+  L=0.04U
X_M_wr._dlat0.MXN5 _WR._DLAT0.N3 _WR.SI0 VSS VPW N11LL_CKT W=0.28U L=0.04U
X_M_wr._dlat0.MXN6 _WR._DLAT0.ND SEL_SI _WR._DLAT0.N3 VPW N11LL_CKT W=0.28U
+  L=0.04U
X_M_wr._dlat0.MXP0 _WR._DLAT0.ND _WR._DLAT0.NSEL1 _WR._DLAT0.P1 VNWP P11LL_CKT
+  W=0.42U L=0.04U
X_M_wr._dlat0.MXP1 _WR._DLAT0.P1 D0 VDDPE VNWP P11LL_CKT W=0.42U L=0.04U
X_M_wr._dlat0.MXP2 _WR._DLAT0.ND _WR._DLAT0.NSEL2 _WR._DLAT0.P2 VNWP P11LL_CKT
+  W=0.42U L=0.04U
X_M_wr._dlat0.MXP3 _WR._DLAT0.P2 TD0 VDDPE VNWP P11LL_CKT W=0.42U L=0.04U
X_M_wr._dlat0.MXP4 _WR._DLAT0.ND _WR._DLAT0.NSEL3 _WR._DLAT0.P3 VNWP P11LL_CKT
+  W=0.42U L=0.04U
X_M_wr._dlat0.MXP5 _WR._DLAT0.P3 _WR.SI0 VDDPE VNWP P11LL_CKT W=0.42U L=0.04U
X_M_wr._dlat1.I1_0.MXNA1 _WR._DLAT1.NSEL3 SEL_SI VSS VPW N11LL_CKT W=0.145U
+  L=0.04U
X_M_wr._dlat1.I1_0.MXPA1 _WR._DLAT1.NSEL3 SEL_SI VDDPE VNWP P11LL_CKT W=0.145U
+  L=0.04U
X_M_wr._dlat1.I1_1.MXNA1 _WR._DLAT1.NSEL2 SEL_TD VSS VPW N11LL_CKT W=0.145U
+  L=0.04U
X_M_wr._dlat1.I1_1.MXPA1 _WR._DLAT1.NSEL2 SEL_TD VDDPE VNWP P11LL_CKT W=0.145U
+  L=0.04U
X_M_wr._dlat1.I1_2.MXNA1 _WR._DLAT1.NSEL1 SEL_D VSS VPW N11LL_CKT W=0.145U
+  L=0.04U
X_M_wr._dlat1.I1_2.MXPA1 _WR._DLAT1.NSEL1 SEL_D VDDPE VNWP P11LL_CKT W=0.145U
+  L=0.04U
X_M_wr._dlat1.I50.MXNA1 _WR.D_LAT1 _WR.DLAT_NQ1 VSS VPW N11LL_CKT W=0.28U
+  L=0.04U
X_M_wr._dlat1.I50.MXPA1 _WR.D_LAT1 _WR.DLAT_NQ1 VDDPE VNWP P11LL_CKT W=0.42U
+  L=0.04U
X_M_wr._dlat1.I55.MXNA1 _WR._DLAT1.I55.N1 _WR.D_LAT1 VSS VPW N11LL_CKT W=0.15U
+  L=0.04U
X_M_wr._dlat1.I55.MXNOE _WR.DLAT_NQ1 _WR.WCLK _WR._DLAT1.I55.N1 VPW N11LL_CKT
+  W=0.15U L=0.04U
X_M_wr._dlat1.I55.MXPA1 _WR._DLAT1.I55.P1 _WR.D_LAT1 VDDPE VNWP P11LL_CKT
+  W=0.15U L=0.04U
X_M_wr._dlat1.I55.MXPOEN _WR.DLAT_NQ1 _WR.INWCLK _WR._DLAT1.I55.P1 VNWP
+  P11LL_CKT W=0.15U L=0.04U
X_M_wr._dlat1.I65.MXNOE _WR.DLAT_NQ1 _WR.INWCLK _WR._DLAT1.ND VPW N11LL_CKT
+  W=0.28U L=0.04U
X_M_wr._dlat1.I65.MXPOEN _WR.DLAT_NQ1 _WR.WCLK _WR._DLAT1.ND VNWP P11LL_CKT
+  W=0.42U L=0.04U
X_M_wr._dlat1.MXN1 _WR._DLAT1.N2 TD1 VSS VPW N11LL_CKT W=0.28U L=0.04U
X_M_wr._dlat1.MXN2 _WR._DLAT1.N1 D1 VSS VPW N11LL_CKT W=0.28U L=0.04U
X_M_wr._dlat1.MXN3 _WR._DLAT1.ND SEL_D _WR._DLAT1.N1 VPW N11LL_CKT W=0.28U
+  L=0.04U
X_M_wr._dlat1.MXN4 _WR._DLAT1.ND SEL_TD _WR._DLAT1.N2 VPW N11LL_CKT W=0.28U
+  L=0.04U
X_M_wr._dlat1.MXN5 _WR._DLAT1.N3 SI VSS VPW N11LL_CKT W=0.28U L=0.04U
X_M_wr._dlat1.MXN6 _WR._DLAT1.ND SEL_SI _WR._DLAT1.N3 VPW N11LL_CKT W=0.28U
+  L=0.04U
X_M_wr._dlat1.MXP0 _WR._DLAT1.ND _WR._DLAT1.NSEL1 _WR._DLAT1.P1 VNWP P11LL_CKT
+  W=0.42U L=0.04U
X_M_wr._dlat1.MXP1 _WR._DLAT1.P1 D1 VDDPE VNWP P11LL_CKT W=0.42U L=0.04U
X_M_wr._dlat1.MXP2 _WR._DLAT1.ND _WR._DLAT1.NSEL2 _WR._DLAT1.P2 VNWP P11LL_CKT
+  W=0.42U L=0.04U
X_M_wr._dlat1.MXP3 _WR._DLAT1.P2 TD1 VDDPE VNWP P11LL_CKT W=0.42U L=0.04U
X_M_wr._dlat1.MXP4 _WR._DLAT1.ND _WR._DLAT1.NSEL3 _WR._DLAT1.P3 VNWP P11LL_CKT
+  W=0.42U L=0.04U
X_M_wr._dlat1.MXP5 _WR._DLAT1.P3 SI VDDPE VNWP P11LL_CKT W=0.42U L=0.04U
X_M_wr._tri0.I169.MXNA1 _WR._TRI0.NET127 _WR.WEN_LAT0 VSS VPW N11LL_CKT
+  W=0.18U L=0.04U
X_M_wr._tri0.I169.MXNA2 _WR._TRI0.NET127 _WR.D_LAT0 VSS VPW N11LL_CKT W=0.18U
+  L=0.04U
X_M_wr._tri0.I169.MXPA1 _WR._TRI0.NET127 _WR.WEN_LAT0 _WR._TRI0.I169.P1 VNWP
+  P11LL_CKT W=0.545U L=0.04U
X_M_wr._tri0.I169.MXPA2 _WR._TRI0.I169.P1 _WR.D_LAT0 VDDPE VNWP P11LL_CKT
+  W=0.545U L=0.04U
X_M_wr._tri0.I179.MXNA1 _WR._TRI0.NET120 _WR.WEN_LAT0 VSS VPW N11LL_CKT
+  W=0.18U L=0.04U
X_M_wr._tri0.I179.MXNA2 _WR._TRI0.NET120 _WR.ND_LAT0 VSS VPW N11LL_CKT W=0.18U
+  L=0.04U
X_M_wr._tri0.I179.MXPA1 _WR._TRI0.NET120 _WR.WEN_LAT0 _WR._TRI0.I179.P1 VNWP
+  P11LL_CKT W=0.545U L=0.04U
X_M_wr._tri0.I179.MXPA2 _WR._TRI0.I179.P1 _WR.ND_LAT0 VDDPE VNWP P11LL_CKT
+  W=0.545U L=0.04U
X_M_wr._tri0.MXN0 WRONE0 _WR._TRI0.NET127 VSS VPW N11LL_CKT W=1.545U L=0.04U
X_M_wr._tri0.MXN1 WRZERO0 _WR._TRI0.NET120 VSS VPW N11LL_CKT W=1.545U L=0.04U
X_M_wr._tri0.MXP0 _WR._TRI0.HZWRONE _WR.WEN_LAT0 VDDPE VNWP P11LL_CKT W=0.44U
+  L=0.04U
X_M_wr._tri0.MXP1 WRONE0 _WR._TRI0.NET127 _WR._TRI0.HZWRONE VNWP P11LL_CKT
+  W=0.44U L=0.04U
X_M_wr._tri0.MXP11 _WR._TRI0.HZWRONE _WR.WCLK VDDPE VNWP P11LL_CKT W=0.44U
+  L=0.04U
X_M_wr._tri0.MXP12 _WR._TRI0.HZWRZERO _WR.WCLK VDDPE VNWP P11LL_CKT W=0.44U
+  L=0.04U
X_M_wr._tri0.MXP2 WRZERO0 _WR._TRI0.NET120 _WR._TRI0.HZWRZERO VNWP P11LL_CKT
+  W=0.44U L=0.04U
X_M_wr._tri0.MXP3 _WR._TRI0.HZWRZERO _WR.WEN_LAT0 VDDPE VNWP P11LL_CKT W=0.44U
+  L=0.04U
X_M_wr._tri1.I169.MXNA1 _WR._TRI1.NET127 _WR.WEN_LAT1 VSS VPW N11LL_CKT
+  W=0.18U L=0.04U
X_M_wr._tri1.I169.MXNA2 _WR._TRI1.NET127 _WR.D_LAT1 VSS VPW N11LL_CKT W=0.18U
+  L=0.04U
X_M_wr._tri1.I169.MXPA1 _WR._TRI1.NET127 _WR.WEN_LAT1 _WR._TRI1.I169.P1 VNWP
+  P11LL_CKT W=0.545U L=0.04U
X_M_wr._tri1.I169.MXPA2 _WR._TRI1.I169.P1 _WR.D_LAT1 VDDPE VNWP P11LL_CKT
+  W=0.545U L=0.04U
X_M_wr._tri1.I179.MXNA1 _WR._TRI1.NET120 _WR.WEN_LAT1 VSS VPW N11LL_CKT
+  W=0.18U L=0.04U
X_M_wr._tri1.I179.MXNA2 _WR._TRI1.NET120 _WR.ND_LAT1 VSS VPW N11LL_CKT W=0.18U
+  L=0.04U
X_M_wr._tri1.I179.MXPA1 _WR._TRI1.NET120 _WR.WEN_LAT1 _WR._TRI1.I179.P1 VNWP
+  P11LL_CKT W=0.545U L=0.04U
X_M_wr._tri1.I179.MXPA2 _WR._TRI1.I179.P1 _WR.ND_LAT1 VDDPE VNWP P11LL_CKT
+  W=0.545U L=0.04U
X_M_wr._tri1.MXN0 WRONE1 _WR._TRI1.NET127 VSS VPW N11LL_CKT W=1.545U L=0.04U
X_M_wr._tri1.MXN1 WRZERO1 _WR._TRI1.NET120 VSS VPW N11LL_CKT W=1.545U L=0.04U
X_M_wr._tri1.MXP0 _WR._TRI1.HZWRONE _WR.WEN_LAT1 VDDPE VNWP P11LL_CKT W=0.44U
+  L=0.04U