* 
* Copyright (c) 1993 - 2022 ARM. All Rights Reserved
* This file has been provided pursuant to a License Agreement
* containing restrictions on its use.  This file contains valuable
* trade secrets and proprietary information of ARM,
* and is protected by patents, copyright law
* and international treaties
* 
* Generated by bif2cdl 3.9.2
* Version: r1p1
* Name: High Density Two Port Register File RVT RVT Compiler | LOGIC0040LL 40nm Process 0.589um^2 Bit Cell
* Comment: This is a memory instance
* Configuration:  -activity_factor 50 -back_biasing off -bits 16 -b\
* Configuration: mux off -bus_notation on -check_instname on -diode\
* Configuration: s on -drive 6 -ema on -frequency 1.0 -instname RAM\
* Configuration: TP128X16 -left_bus_delim "[" -mux 2 -mvt "" -name_\
* Configuration: case upper -power_type otc -prefix "" -pwr_gnd_ren\
* Configuration: ame vddpe:VDDPE,vddce:VDDCE,vsse:VSSE -retention o\
* Configuration: n -right_bus_delim "]" -ser none -site_def off -to\
* Configuration: p_layer m5-m10 -words 128 -write_mask on -corners \
* Configuration: ff_1p10v_1p10v_0c,ff_1p10v_1p10v_125c,ff_1p10v_1p1\
* Configuration: 0v_m40c,ff_1p21v_1p21v_0c,ff_1p21v_1p21v_125c,ff_1\
* Configuration: p21v_1p21v_m40c,ff_1p26v_1p26v_0c,ff_1p26v_1p26v_1\
* Configuration: 25c,ff_1p26v_1p26v_85c,ff_1p26v_1p26v_m40c,ss_0p90\
* Configuration: v_0p90v_0c,ss_0p90v_0p90v_125c,ss_0p90v_0p90v_m40c\
* Configuration: ,ss_0p99v_0p99v_0c,ss_0p99v_0p99v_125c,ss_0p99v_0p\
* Configuration: 99v_m40c,ss_1p08v_1p08v_0c,ss_1p08v_1p08v_125c,ss_\
* Configuration: 1p08v_1p08v_m40c,tt_1p00v_1p00v_125c,tt_1p00v_1p00\
* Configuration: v_25c,tt_1p00v_1p00v_85c,tt_1p10v_1p10v_125c,tt_1p\
* Configuration: 10v_1p10v_25c,tt_1p10v_1p10v_85c,tt_1p20v_1p20v_12\
* Configuration: 5c,tt_1p20v_1p20v_25c,tt_1p20v_1p20v_85c
* Codefile: 
* 
*
*.BIPOLAR
*.DIOAREA
*.DIOPERI
*
****
.SUBCKT RAMTP128X16WD32X2 DBLA DBLA_DUMO DBLA_OUT DBLA_UP DBLB DWLA DWLB
+  EMAA[0] EMAA[1] EMAA[2] EMAB[0] EMAB[1] EMAB[2] GTPA0 GTPA1 GTPB0 GTPB1
+  LAA[0] LAA[1] LAB[0] LAB[1] LOG0_DWLA LOG0_DWLB LOG1A LOG1B N0A N0B N1A N1B
+  N2A N2B N3A N3B NACTC NRETNVT NXAP0_0 NXAP0_1 NXAP0_2 NXAP0_3 NXAP0_4
+  NXAP0_5 NXAP0_6 NXAP0_7 NXAP1_0 NXAP1_1 NXAP1_2 NXAP1_3 NXAP1_4 NXAP1_5
+  NXAP1_6 NXAP1_7 NXBP0_0 NXBP0_1 NXBP0_2 NXBP0_3 NXBP0_4 NXBP0_5 NXBP0_6
+  NXBP0_7 NXBP1_0 NXBP1_1 NXBP1_2 NXBP1_3 NXBP1_4 NXBP1_5 NXBP1_6 NXBP1_7
+  RAA[0] RAA[1] RAA[2] RAA[3] RAA[4] RAA[5] RAB[0] RAB[1] RAB[2] RAB[3]
+  RAB[4] RAB[5] RETA RETB ROWCLK0A ROWCLK0B ROWCLK1A ROWCLK1B ROWCLK2A
+  ROWCLK2B ROWCLK3A ROWCLK3B VDDC VDDCE VDDC_CCL VDDC_CCR VDDC_FDECA0
+  VDDC_FDECA1 VDDC_FDECB0 VDDC_FDECB1 VDDC_WLA0 VDDC_WLA1 VDDC_WLB0 VDDC_WLB1
+  VDDPE VDDP_WDA VDDP_WDB VNWC VNWP VPW VSS VSSE WLA0 WLA1 WLA2 WLA3 WLA4
+  WLA5 WLA6 WLA7 WLA8 WLA9 WLA10 WLA11 WLA12 WLA13 WLA14 WLA15 WLA16 WLA17
+  WLA18 WLA19 WLA20 WLA21 WLA22 WLA23 WLA24 WLA25 WLA26 WLA27 WLA28 WLA29
+  WLA30 WLA31 WLB0 WLB1 WLB2 WLB3 WLB4 WLB5 WLB6 WLB7 WLB8 WLB9 WLB10 WLB11
+  WLB12 WLB13 WLB14 WLB15 WLB16 WLB17 WLB18 WLB19 WLB20 WLB21 WLB22 WLB23
+  WLB24 WLB25 WLB26 WLB27 WLB28 WLB29 WLB30 WLB31
** RAMTP128X16WD32X2: 1211 flat devices **
X_MI1.I8.MX_npd I1.ROWSELA RETA VSSE VPW N11LL_CKT W=0.285U L=0.04U
X_MI1.I8.MX_nr_header VDDP_WDA RETA VDDPE VNWP P11LL_CKT W=1.135U L=0.04U
X_MI1.I8._nr.MXNA1 I1.ROWSELA NXAP0_0 VSSE VPW N11LL_CKT W=0.285U L=0.04U
X_MI1.I8._nr.MXNA2 I1.ROWSELA NXAP1_0 VSSE VPW N11LL_CKT W=0.285U L=0.04U
X_MI1.I8._nr.MXPA1 I1.ROWSELA NXAP0_0 I1.I8._NR.P1 VNWP P11LL_CKT W=1.135U
+  L=0.04U
X_MI1.I8._nr.MXPA2 I1.I8._NR.P1 NXAP1_0 VDDP_WDA VNWP P11LL_CKT W=1.135U
+  L=0.04U
X_MI1.I9.MX_npd I1.ROWSELB RETB VSSE VPW N11LL_CKT W=0.285U L=0.04U
X_MI1.I9.MX_nr_header VDDP_WDB RETB VDDPE VNWP P11LL_CKT W=1.135U L=0.04U
X_MI1.I9._nr.MXNA1 I1.ROWSELB NXBP0_0 VSSE VPW N11LL_CKT W=0.285U L=0.04U
X_MI1.I9._nr.MXNA2 I1.ROWSELB NXBP1_0 VSSE VPW N11LL_CKT W=0.285U L=0.04U
X_MI1.I9._nr.MXPA1 I1.ROWSELB NXBP0_0 I1.I9._NR.P1 VNWP P11LL_CKT W=1.135U
+  L=0.04U
X_MI1.I9._nr.MXPA2 I1.I9._NR.P1 NXBP1_0 VDDP_WDB VNWP P11LL_CKT W=1.135U
+  L=0.04U
X_MI1._drvwla0.MXN10 N2A ROWCLK2A VSSE VPW N11LL_CKT W=0.285U L=0.04U
X_MI1._drvwla0.MXN11 WLA2 I1._DRVWLA0.NWL VSSE VPW N11LL_CKT W=4.84U L=0.04U
X_MI1._drvwla0.MXN8 I1._DRVWLA0.NWL I1.ROWSELA N2A VPW N11LL_CKT W=1.99U
+  L=0.04U
X_MI1._drvwla0.MXP12 I1._DRVWLA0.NWL ROWCLK2A VDDCE VNWC P11LL_CKT W=1.18U
+  L=0.04U
X_MI1._drvwla0.MXP13 I1._DRVWLA0.NWL I1.ROWSELA VDDCE VNWC P11LL_CKT W=0.37U
+  L=0.04U
X_MI1._drvwla0.MXP7 WLA2 I1._DRVWLA0.NWL VDDC_WLA0 VNWC P11LL_CKT W=7U L=0.04U
X_MI1._drvwla1.MXN10 N3A ROWCLK3A VSSE VPW N11LL_CKT W=0.285U L=0.04U
X_MI1._drvwla1.MXN11 WLA3 I1._DRVWLA1.NWL VSSE VPW N11LL_CKT W=4.84U L=0.04U
X_MI1._drvwla1.MXN8 I1._DRVWLA1.NWL I1.ROWSELA N3A VPW N11LL_CKT W=1.99U
+  L=0.04U
X_MI1._drvwla1.MXP12 I1._DRVWLA1.NWL ROWCLK3A VDDCE VNWC P11LL_CKT W=1.18U
+  L=0.04U
X_MI1._drvwla1.MXP13 I1._DRVWLA1.NWL I1.ROWSELA VDDCE VNWC P11LL_CKT W=0.37U
+  L=0.04U
X_MI1._drvwla1.MXP7 WLA3 I1._DRVWLA1.NWL VDDC_WLA1 VNWC P11LL_CKT W=7U L=0.04U
X_MI1._drvwlb0.MXN10 N2B ROWCLK2B VSSE VPW N11LL_CKT W=0.285U L=0.04U
X_MI1._drvwlb0.MXN11 WLB2 I1._DRVWLB0.NWL VSSE VPW N11LL_CKT W=4.84U L=0.04U
X_MI1._drvwlb0.MXN8 I1._DRVWLB0.NWL I1.ROWSELB N2B VPW N11LL_CKT W=1.99U
+  L=0.04U
X_MI1._drvwlb0.MXP12 I1._DRVWLB0.NWL ROWCLK2B VDDCE VNWC P11LL_CKT W=1.18U
+  L=0.04U
X_MI1._drvwlb0.MXP13 I1._DRVWLB0.NWL I1.ROWSELB VDDCE VNWC P11LL_CKT W=0.37U
+  L=0.04U
X_MI1._drvwlb0.MXP7 WLB2 I1._DRVWLB0.NWL VDDC_WLB0 VNWC P11LL_CKT W=7U L=0.04U
X_MI1._drvwlb1.MXN10 N3B ROWCLK3B VSSE VPW N11LL_CKT W=0.285U L=0.04U
X_MI1._drvwlb1.MXN11 WLB3 I1._DRVWLB1.NWL VSSE VPW N11LL_CKT W=4.84U L=0.04U
X_MI1._drvwlb1.MXN8 I1._DRVWLB1.NWL I1.ROWSELB N3B VPW N11LL_CKT W=1.99U
+  L=0.04U
X_MI1._drvwlb1.MXP12 I1._DRVWLB1.NWL ROWCLK3B VDDCE VNWC P11LL_CKT W=1.18U
+  L=0.04U
X_MI1._drvwlb1.MXP13 I1._DRVWLB1.NWL I1.ROWSELB VDDCE VNWC P11LL_CKT W=0.37U
+  L=0.04U
X_MI1._drvwlb1.MXP7 WLB3 I1._DRVWLB1.NWL VDDC_WLB1 VNWC P11LL_CKT W=7U L=0.04U
X_MI2.I8.MX_npd I2.ROWSELA RETA VSSE VPW N11LL_CKT W=0.285U L=0.04U
X_MI2.I8.MX_nr_header VDDP_WDA RETA VDDPE VNWP P11LL_CKT W=1.135U L=0.04U
X_MI2.I8._nr.MXNA1 I2.ROWSELA NXAP0_1 VSSE VPW N11LL_CKT W=0.285U L=0.04U
X_MI2.I8._nr.MXNA2 I2.ROWSELA NXAP1_0 VSSE VPW N11LL_CKT W=0.285U L=0.04U
X_MI2.I8._nr.MXPA1 I2.ROWSELA NXAP0_1 I2.I8._NR.P1 VNWP P11LL_CKT W=1.135U
+  L=0.04U
X_MI2.I8._nr.MXPA2 I2.I8._NR.P1 NXAP1_0 VDDP_WDA VNWP P11LL_CKT W=1.135U
+  L=0.04U
X_MI2.I9.MX_npd I2.ROWSELB RETB VSSE VPW N11LL_CKT W=0.285U L=0.04U
X_MI2.I9.MX_nr_header VDDP_WDB RETB VDDPE VNWP P11LL_CKT W=1.135U L=0.04U
X_MI2.I9._nr.MXNA1 I2.ROWSELB NXBP0_1 VSSE VPW N11LL_CKT W=0.285U L=0.04U
X_MI2.I9._nr.MXNA2 I2.ROWSELB NXBP1_0 VSSE VPW N11LL_CKT W=0.285U L=0.04U
X_MI2.I9._nr.MXPA1 I2.ROWSELB NXBP0_1 I2.I9._NR.P1 VNWP P11LL_CKT W=1.135U
+  L=0.04U
X_MI2.I9._nr.MXPA2 I2.I9._NR.P1 NXBP1_0 VDDP_WDB VNWP P11LL_CKT W=1.135U
+  L=0.04U
X_MI2._drvwla0.MXN10 N0A ROWCLK0A VSSE VPW N11LL_CKT W=0.285U L=0.04U
X_MI2._drvwla0.MXN11 WLA4 I2._DRVWLA0.NWL VSSE VPW N11LL_CKT W=4.84U L=0.04U
X_MI2._drvwla0.MXN8 I2._DRVWLA0.NWL I2.ROWSELA N0A VPW N11LL_CKT W=1.99U
+  L=0.04U
X_MI2._drvwla0.MXP12 I2._DRVWLA0.NWL ROWCLK0A VDDCE VNWC P11LL_CKT W=1.18U
+  L=0.04U
X_MI2._drvwla0.MXP13 I2._DRVWLA0.NWL I2.ROWSELA VDDCE VNWC P11LL_CKT W=0.37U
+  L=0.04U
X_MI2._drvwla0.MXP7 WLA4 I2._DRVWLA0.NWL VDDC_WLA0 VNWC P11LL_CKT W=7U L=0.04U
X_MI2._drvwla1.MXN10 N1A ROWCLK1A VSSE VPW N11LL_CKT W=0.285U L=0.04U
X_MI2._drvwla1.MXN11 WLA5 I2._DRVWLA1.NWL VSSE VPW N11LL_CKT W=4.84U L=0.04U
X_MI2._drvwla1.MXN8 I2._DRVWLA1.NWL I2.ROWSELA N1A VPW N11LL_CKT W=1.99U
+  L=0.04U
X_MI2._drvwla1.MXP12 I2._DRVWLA1.NWL ROWCLK1A VDDCE VNWC P11LL_CKT W=1.18U
+  L=0.04U
X_MI2._drvwla1.MXP13 I2._DRVWLA1.NWL I2.ROWSELA VDDCE VNWC P11LL_CKT W=0.37U
+  L=0.04U
X_MI2._drvwla1.MXP7 WLA5 I2._DRVWLA1.NWL VDDC_WLA1 VNWC P11LL_CKT W=7U L=0.04U
X_MI2._drvwlb0.MXN10 N0B ROWCLK0B VSSE VPW N11LL_CKT W=0.285U L=0.04U
X_MI2._drvwlb0.MXN11 WLB4 I2._DRVWLB0.NWL VSSE VPW N11LL_CKT W=4.84U L=0.04U
X_MI2._drvwlb0.MXN8 I2._DRVWLB0.NWL I2.ROWSELB N0B VPW N11LL_CKT W=1.99U
+  L=0.04U
X_MI2._drvwlb0.MXP12 I2._DRVWLB0.NWL ROWCLK0B VDDCE VNWC P11LL_CKT W=1.18U
+  L=0.04U
X_MI2._drvwlb0.MXP13 I2._DRVWLB0.NWL I2.ROWSELB VDDCE VNWC P11LL_CKT W=0.37U
+  L=0.04U
X_MI2._drvwlb0.MXP7 WLB4 I2._DRVWLB0.NWL VDDC_WLB0 VNWC P11LL_CKT W=7U L=0.04U
X_MI2._drvwlb1.MXN10 N1B ROWCLK1B VSSE VPW N11LL_CKT W=0.285U L=0.04U
X_MI2._drvwlb1.MXN11 WLB5 I2._DRVWLB1.NWL VSSE VPW N11LL_CKT W=4.84U L=0.04U
X_MI2._drvwlb1.MXN8 I2._DRVWLB1.NWL I2.ROWSELB N1B VPW N11LL_CKT W=1.99U
+  L=0.04U
X_MI2._drvwlb1.MXP12 I2._DRVWLB1.NWL ROWCLK1B VDDCE VNWC P11LL_CKT W=1.18U
+  L=0.04U
X_MI2._drvwlb1.MXP13 I2._DRVWLB1.NWL I2.ROWSELB VDDCE VNWC P11LL_CKT W=0.37U
+  L=0.04U
X_MI2._drvwlb1.MXP7 WLB5 I2._DRVWLB1.NWL VDDC_WLB1 VNWC P11LL_CKT W=7U L=0.04U
X_MI20_0.MXNA1 ILAA[0] NLAA[0] VSS VPW N11LL_CKT W=0.285U L=0.04U
X_MI20_0.MXPA1 ILAA[0] NLAA[0] VDDPE VNWP P11LL_CKT W=0.42U L=0.04U
X_MI20_1.MXNA1 ILAA[1] NLAA[1] VSS VPW N11LL_CKT W=0.285U L=0.04U
X_MI20_1.MXPA1 ILAA[1] NLAA[1] VDDPE VNWP P11LL_CKT W=0.42U L=0.04U
X_MI21_0.MXNA1 IRAA[0] NRAA[0] VSS VPW N11LL_CKT W=0.42U L=0.04U
X_MI21_0.MXPA1 IRAA[0] NRAA[0] VDDPE VNWP P11LL_CKT W=0.77U L=0.04U
X_MI21_1.MXNA1 IRAA[1] NRAA[1] VSS VPW N11LL_CKT W=0.42U L=0.04U
X_MI21_1.MXPA1 IRAA[1] NRAA[1] VDDPE VNWP P11LL_CKT W=0.77U L=0.04U
X_MI21_2.MXNA1 IRAA[2] NRAA[2] VSS VPW N11LL_CKT W=0.42U L=0.04U
X_MI21_2.MXPA1 IRAA[2] NRAA[2] VDDPE VNWP P11LL_CKT W=0.77U L=0.04U
X_MI22_0.MXNA1 NRAA[0] RAA[0] VSS VPW N11LL_CKT W=0.57U L=0.04U
X_MI22_0.MXPA1 NRAA[0] RAA[0] VDDPE VNWP P11LL_CKT W=1.02U L=0.04U
X_MI22_1.MXNA1 NRAA[1] RAA[1] VSS VPW N11LL_CKT W=0.57U L=0.04U
X_MI22_1.MXPA1 NRAA[1] RAA[1] VDDPE VNWP P11LL_CKT W=1.02U L=0.04U
X_MI22_2.MXNA1 NRAA[2] RAA[2] VSS VPW N11LL_CKT W=0.57U L=0.04U
X_MI22_2.MXPA1 NRAA[2] RAA[2] VDDPE VNWP P11LL_CKT W=1.02U L=0.04U
X_MI23_0.MXNA1 NRAA[3] RAA[3] VSS VPW N11LL_CKT W=0.57U L=0.04U
X_MI23_0.MXPA1 NRAA[3] RAA[3] VDDPE VNWP P11LL_CKT W=1.02U L=0.04U
X_MI23_1.MXNA1 NRAA[4] RAA[4] VSS VPW N11LL_CKT W=0.57U L=0.04U
X_MI23_1.MXPA1 NRAA[4] RAA[4] VDDPE VNWP P11LL_CKT W=1.02U L=0.04U
X_MI23_2.MXNA1 NRAA[5] RAA[5] VSS VPW N11LL_CKT W=0.57U L=0.04U
X_MI23_2.MXPA1 NRAA[5] RAA[5] VDDPE VNWP P11LL_CKT W=1.02U L=0.04U
X_MI24_0.MXNA1 IRAA[3] NRAA[3] VSS VPW N11LL_CKT W=0.42U L=0.04U
X_MI24_0.MXPA1 IRAA[3] NRAA[3] VDDPE VNWP P11LL_CKT W=0.77U L=0.04U
X_MI24_1.MXNA1 IRAA[4] NRAA[4] VSS VPW N11LL_CKT W=0.42U L=0.04U
X_MI24_1.MXPA1 IRAA[4] NRAA[4] VDDPE VNWP P11LL_CKT W=0.77U L=0.04U
X_MI24_2.MXNA1 IRAA[5] NRAA[5] VSS VPW N11LL_CKT W=0.42U L=0.04U
X_MI24_2.MXPA1 IRAA[5] NRAA[5] VDDPE VNWP P11LL_CKT W=0.77U L=0.04U
X_MI25_0.MXNA1 IRAB[3] NRAB[3] VSS VPW N11LL_CKT W=0.42U L=0.04U
X_MI25_0.MXPA1 IRAB[3] NRAB[3] VDDPE VNWP P11LL_CKT W=0.77U L=0.04U
X_MI25_1.MXNA1 IRAB[4] NRAB[4] VSS VPW N11LL_CKT W=0.42U L=0.04U
X_MI25_1.MXPA1 IRAB[4] NRAB[4] VDDPE VNWP P11LL_CKT W=0.77U L=0.04U
X_MI25_2.MXNA1 IRAB[5] NRAB[5] VSS VPW N11LL_CKT W=0.42U L=0.04U
X_MI25_2.MXPA1 IRAB[5] NRAB[5] VDDPE VNWP P11LL_CKT W=0.77U L=0.04U
X_MI26_0.MXNA1 NRAB[3] RAB[3] VSS VPW N11LL_CKT W=0.57U L=0.04U
X_MI26_0.MXPA1 NRAB[3] RAB[3] VDDPE VNWP P11LL_CKT W=1.02U L=0.04U
X_MI26_1.MXNA1 NRAB[4] RAB[4] VSS VPW N11LL_CKT W=0.57U L=0.04U
X_MI26_1.MXPA1 NRAB[4] RAB[4] VDDPE VNWP P11LL_CKT W=1.02U L=0.04U
X_MI26_2.MXNA1 NRAB[5] RAB[5] VSS VPW N11LL_CKT W=0.57U L=0.04U
X_MI26_2.MXPA1 NRAB[5] RAB[5] VDDPE VNWP P11LL_CKT W=1.02U L=0.04U
X_MI27_0.MXNA1 NRAB[0] RAB[0] VSS VPW N11LL_CKT W=0.57U L=0.04U
X_MI27_0.MXPA1 NRAB[0] RAB[0] VDDPE VNWP P11LL_CKT W=1.02U L=0.04U
X_MI27_1.MXNA1 NRAB[1] RAB[1] VSS VPW N11LL_CKT W=0.57U L=0.04U
X_MI27_1.MXPA1 NRAB[1] RAB[1] VDDPE VNWP P11LL_CKT W=1.02U L=0.04U
X_MI27_2.MXNA1 NRAB[2] RAB[2] VSS VPW N11LL_CKT W=0.57U L=0.04U
X_MI27_2.MXPA1 NRAB[2] RAB[2] VDDPE VNWP P11LL_CKT W=1.02U L=0.04U
X_MI28_0.MXNA1 IRAB[0] NRAB[0] VSS VPW N11LL_CKT W=0.42U L=0.04U
X_MI28_0.MXPA1 IRAB[0] NRAB[0] VDDPE VNWP P11LL_CKT W=0.77U L=0.04U
X_MI28_1.MXNA1 IRAB[1] NRAB[1] VSS VPW N11LL_CKT W=0.42U L=0.04U
X_MI28_1.MXPA1 IRAB[1] NRAB[1] VDDPE VNWP P11LL_CKT W=0.77U L=0.04U
X_MI28_2.MXNA1 IRAB[2] NRAB[2] VSS VPW N11LL_CKT W=0.42U L=0.04U
X_MI28_2.MXPA1 IRAB[2] NRAB[2] VDDPE VNWP P11LL_CKT W=0.77U L=0.04U
X_MI29_0.MXNA1 ILAB[0] NLAB[0] VSS VPW N11LL_CKT W=0.285U L=0.04U
X_MI29_0.MXPA1 ILAB[0] NLAB[0] VDDPE VNWP P11LL_CKT W=0.425U L=0.04U
X_MI29_1.MXNA1 ILAB[1] NLAB[1] VSS VPW N11LL_CKT W=0.285U L=0.04U
X_MI29_1.MXPA1 ILAB[1] NLAB[1] VDDPE VNWP P11LL_CKT W=0.425U L=0.04U
X_MI3.I8.MX_npd I3.ROWSELA RETA VSSE VPW N11LL_CKT W=0.285U L=0.04U
X_MI3.I8.MX_nr_header VDDP_WDA RETA VDDPE VNWP P11LL_CKT W=1.135U L=0.04U
X_MI3.I8._nr.MXNA1 I3.ROWSELA NXAP0_1 VSSE VPW N11LL_CKT W=0.285U L=0.04U
X_MI3.I8._nr.MXNA2 I3.ROWSELA NXAP1_0 VSSE VPW N11LL_CKT W=0.285U L=0.04U
X_MI3.I8._nr.MXPA1 I3.ROWSELA NXAP0_1 I3.I8._NR.P1 VNWP P11LL_CKT W=1.135U
+  L=0.04U
X_MI3.I8._nr.MXPA2 I3.I8._NR.P1 NXAP1_0 VDDP_WDA VNWP P11LL_CKT W=1.135U
+  L=0.04U
X_MI3.I9.MX_npd I3.ROWSELB RETB VSSE VPW N11LL_CKT W=0.285U L=0.04U
X_MI3.I9.MX_nr_header VDDP_WDB RETB VDDPE VNWP P11LL_CKT W=1.135U L=0.04U
X_MI3.I9._nr.MXNA1 I3.ROWSELB NXBP0_1 VSSE VPW N11LL_CKT W=0.285U L=0.04U
X_MI3.I9._nr.MXNA2 I3.ROWSELB NXBP1_0 VSSE VPW N11LL_CKT W=0.285U L=0.04U
X_MI3.I9._nr.MXPA1 I3.ROWSELB NXBP0_1 I3.I9._NR.P1 VNWP P11LL_CKT W=1.135U
+  L=0.04U
X_MI3.I9._nr.MXPA2 I3.I9._NR.P1 NXBP1_0 VDDP_WDB VNWP P11LL_CKT W=1.135U
+  L=0.04U
X_MI3._drvwla0.MXN10 N2A ROWCLK2A VSSE VPW N11LL_CKT W=0.285U L=0.04U
X_MI3._drvwla0.MXN11 WLA6 I3._DRVWLA0.NWL VSSE VPW N11LL_CKT W=4.84U L=0.04U
X_MI3._drvwla0.MXN8 I3._DRVWLA0.NWL I3.ROWSELA N2A VPW N11LL_CKT W=1.99U
+  L=0.04U
X_MI3._drvwla0.MXP12 I3._DRVWLA0.NWL ROWCLK2A VDDCE VNWC P11LL_CKT W=1.18U
+  L=0.04U
X_MI3._drvwla0.MXP13 I3._DRVWLA0.NWL I3.ROWSELA VDDCE VNWC P11LL_CKT W=0.37U
+  L=0.04U
X_MI3._drvwla0.MXP7 WLA6 I3._DRVWLA0.NWL VDDC_WLA0 VNWC P11LL_CKT W=7U L=0.04U
X_MI3._drvwla1.MXN10 N3A ROWCLK3A VSSE VPW N11LL_CKT W=0.285U L=0.04U
X_MI3._drvwla1.MXN11 WLA7 I3._DRVWLA1.NWL VSSE VPW N11LL_CKT W=4.84U L=0.04U
X_MI3._drvwla1.MXN8 I3._DRVWLA1.NWL I3.ROWSELA N3A VPW N11LL_CKT W=1.99U
+  L=0.04U
X_MI3._drvwla1.MXP12 I3._DRVWLA1.NWL ROWCLK3A VDDCE VNWC P11LL_CKT W=1.18U
+  L=0.04U
X_MI3._drvwla1.MXP13 I3._DRVWLA1.NWL I3.ROWSELA VDDCE VNWC P11LL_CKT W=0.37U
+  L=0.04U
X_MI3._drvwla1.MXP7 WLA7 I3._DRVWLA1.NWL VDDC_WLA1 VNWC P11LL_CKT W=7U L=0.04U
X_MI3._drvwlb0.MXN10 N2B ROWCLK2B VSSE VPW N11LL_CKT W=0.285U L=0.04U
X_MI3._drvwlb0.MXN11 WLB6 I3._DRVWLB0.NWL VSSE VPW N11LL_CKT W=4.84U L=0.04U
X_MI3._drvwlb0.MXN8 I3._DRVWLB0.NWL I3.ROWSELB N2B VPW N11LL_CKT W=1.99U
+  L=0.04U
X_MI3._drvwlb0.MXP12 I3._DRVWLB0.NWL ROWCLK2B VDDCE VNWC P11LL_CKT W=1.18U
+  L=0.04U
X_MI3._drvwlb0.MXP13 I3._DRVWLB0.NWL I3.ROWSELB VDDCE VNWC P11LL_CKT W=0.37U
+  L=0.04U
X_MI3._drvwlb0.MXP7 WLB6 I3._DRVWLB0.NWL VDDC_WLB0 VNWC P11LL_CKT W=7U L=0.04U
X_MI3._drvwlb1.MXN10 N3B ROWCLK3B VSSE VPW N11LL_CKT W=0.285U L=0.04U
X_MI3._drvwlb1.MXN11 WLB7 I3._DRVWLB1.NWL VSSE VPW N11LL_CKT W=4.84U L=0.04U
X_MI3._drvwlb1.MXN8 I3._DRVWLB1.NWL I3.ROWSELB N3B VPW N11LL_CKT W=1.99U
+  L=0.04U
X_MI3._drvwlb1.MXP12 I3._DRVWLB1.NWL ROWCLK3B VDDCE VNWC P11LL_CKT W=1.18U
+  L=0.04U
X_MI3._drvwlb1.MXP13 I3._DRVWLB1.NWL I3.ROWSELB VDDCE VNWC P11LL_CKT W=0.37U
+  L=0.04U
X_MI3._drvwlb1.MXP7 WLB7 I3._DRVWLB1.NWL VDDC_WLB1 VNWC P11LL_CKT W=7U L=0.04U
X_MI30_0.MXNA1 NLAB[0] LAB[0] VSS VPW N11LL_CKT W=0.285U L=0.04U
X_MI30_0.MXPA1 NLAB[0] LAB[0] VDDPE VNWP P11LL_CKT W=0.425U L=0.04U
X_MI30_1.MXNA1 NLAB[1] LAB[1] VSS VPW N11LL_CKT W=0.285U L=0.04U
X_MI30_1.MXPA1 NLAB[1] LAB[1] VDDPE VNWP P11LL_CKT W=0.425U L=0.04U
X_MI35.I8.MX_npd I35.ROWSELA RETA VSSE VPW N11LL_CKT W=0.285U L=0.04U
X_MI35.I8.MX_nr_header VDDP_WDA RETA VDDPE VNWP P11LL_CKT W=1.135U L=0.04U
X_MI35.I8._nr.MXNA1 I35.ROWSELA NXAP0_4 VSSE VPW N11LL_CKT W=0.285U L=0.04U
X_MI35.I8._nr.MXNA2 I35.ROWSELA NXAP1_0 VSSE VPW N11LL_CKT W=0.285U L=0.04U
X_MI35.I8._nr.MXPA1 I35.ROWSELA NXAP0_4 I35.I8._NR.P1 VNWP P11LL_CKT W=1.135U
+  L=0.04U
X_MI35.I8._nr.MXPA2 I35.I8._NR.P1 NXAP1_0 VDDP_WDA VNWP P11LL_CKT W=1.135U
+  L=0.04U
X_MI35.I9.MX_npd I35.ROWSELB RETB VSSE VPW N11LL_CKT W=0.285U L=0.04U
X_MI35.I9.MX_nr_header VDDP_WDB RETB VDDPE VNWP P11LL_CKT W=1.135U L=0.04U
X_MI35.I9._nr.MXNA1 I35.ROWSELB NXBP0_4 VSSE VPW N11LL_CKT W=0.285U L=0.04U
X_MI35.I9._nr.MXNA2 I35.ROWSELB NXBP1_0 VSSE VPW N11LL_CKT W=0.285U L=0.04U
X_MI35.I9._nr.MXPA1 I35.ROWSELB NXBP0_4 I35.I9._NR.P1 VNWP P11LL_CKT W=1.135U
+  L=0.04U
X_MI35.I9._nr.MXPA2 I35.I9._NR.P1 NXBP1_0 VDDP_WDB VNWP P11LL_CKT W=1.135U
+  L=0.04U
X_MI35._drvwla0.MXN10 N0A ROWCLK0A VSSE VPW N11LL_CKT W=0.285U L=0.04U
X_MI35._drvwla0.MXN11 WLA16 I35._DRVWLA0.NWL VSSE VPW N11LL_CKT W=4.84U
+  L=0.04U
X_MI35._drvwla0.MXN8 I35._DRVWLA0.NWL I35.ROWSELA N0A VPW N11LL_CKT W=1.99U
+  L=0.04U
X_MI35._drvwla0.MXP12 I35._DRVWLA0.NWL ROWCLK0A VDDCE VNWC P11LL_CKT W=1.18U
+  L=0.04U
X_MI35._drvwla0.MXP13 I35._DRVWLA0.NWL I35.ROWSELA VDDCE VNWC P11LL_CKT
+  W=0.37U L=0.04U
X_MI35._drvwla0.MXP7 WLA16 I35._DRVWLA0.NWL VDDC_WLA0 VNWC P11LL_CKT W=7U
+  L=0.04U
X_MI35._drvwla1.MXN10 N1A ROWCLK1A VSSE VPW N11LL_CKT W=0.285U L=0.04U
X_MI35._drvwla1.MXN11 WLA17 I35._DRVWLA1.NWL VSSE VPW N11LL_CKT W=4.84U
+  L=0.04U
X_MI35._drvwla1.MXN8 I35._DRVWLA1.NWL I35.ROWSELA N1A VPW N11LL_CKT W=1.99U
+  L=0.04U
X_MI35._drvwla1.MXP12 I35._DRVWLA1.NWL ROWCLK1A VDDCE VNWC P11LL_CKT W=1.18U
+  L=0.04U
X_MI35._drvwla1.MXP13 I35._DRVWLA1.NWL I35.ROWSELA VDDCE VNWC P11LL_CKT
+  W=0.37U L=0.04U
X_MI35._drvwla1.MXP7 WLA17 I35._DRVWLA1.NWL VDDC_WLA1 VNWC P11LL_CKT W=7U
+  L=0.04U
X_MI35._drvwlb0.MXN10 N0B ROWCLK0B VSSE VPW N11LL_CKT W=0.285U L=0.04U
X_MI35._drvwlb0.MXN11 WLB16 I35._DRVWLB0.NWL VSSE VPW N11LL_CKT W=4.84U
+  L=0.04U
X_MI35._drvwlb0.MXN8 I35._DRVWLB0.NWL I35.ROWSELB N0B VPW N11LL_CKT W=1.99U
+  L=0.04U
X_MI35._drvwlb0.MXP12 I35._DRVWLB0.NWL ROWCLK0B VDDCE VNWC P11LL_CKT W=1.18U
+  L=0.04U
X_MI35._drvwlb0.MXP13 I35._DRVWLB0.NWL I35.ROWSELB VDDCE VNWC P11LL_CKT
+  W=0.37U L=0.04U
X_MI35._drvwlb0.MXP7 WLB16 I35._DRVWLB0.NWL VDDC_WLB0 VNWC P11LL_CKT W=7U
+  L=0.04U
X_MI35._drvwlb1.MXN10 N1B ROWCLK1B VSSE VPW N11LL_CKT W=0.285U L=0.04U
X_MI35._drvwlb1.MXN11 WLB17 I35._DRVWLB1.NWL VSSE VPW N11LL_CKT W=4.84U
+  L=0.04U
X_MI35._drvwlb1.MXN8 I35._DRVWLB1.NWL I35.ROWSELB N1B VPW N11LL_CKT W=1.99U
+  L=0.04U
X_MI35._drvwlb1.MXP12 I35._DRVWLB1.NWL ROWCLK1B VDDCE VNWC P11LL_CKT W=1.18U
+  L=0.04U
X_MI35._drvwlb1.MXP13 I35._DRVWLB1.NWL I35.ROWSELB VDDCE VNWC P11LL_CKT
+  W=0.37U L=0.04U
X_MI35._drvwlb1.MXP7 WLB17 I35._DRVWLB1.NWL VDDC_WLB1 VNWC P11LL_CKT W=7U
+  L=0.04U
X_MI36.I8.MX_npd I36.ROWSELA RETA VSSE VPW N11LL_CKT W=0.285U L=0.04U
X_MI36.I8.MX_nr_header VDDP_WDA RETA VDDPE VNWP P11LL_CKT W=1.135U L=0.04U
X_MI36.I8._nr.MXNA1 I36.ROWSELA NXAP0_4 VSSE VPW N11LL_CKT W=0.285U L=0.04U
X_MI36.I8._nr.MXNA2 I36.ROWSELA NXAP1_0 VSSE VPW N11LL_CKT W=0.285U L=0.04U
X_MI36.I8._nr.MXPA1 I36.ROWSELA NXAP0_4 I36.I8._NR.P1 VNWP P11LL_CKT W=1.135U
+  L=0.04U
X_MI36.I8._nr.MXPA2 I36.I8._NR.P1 NXAP1_0 VDDP_WDA VNWP P11LL_CKT W=1.135U
+  L=0.04U
X_MI36.I9.MX_npd I36.ROWSELB RETB VSSE VPW N11LL_CKT W=0.285U L=0.04U
X_MI36.I9.MX_nr_header VDDP_WDB RETB VDDPE VNWP P11LL_CKT W=1.135U L=0.04U
X_MI36.I9._nr.MXNA1 I36.ROWSELB NXBP0_4 VSSE VPW N11LL_CKT W=0.285U L=0.04U
X_MI36.I9._nr.MXNA2 I36.ROWSELB NXBP1_0 VSSE VPW N11LL_CKT W=0.285U L=0.04U
X_MI36.I9._nr.MXPA1 I36.ROWSELB NXBP0_4 I36.I9._NR.P1 VNWP P11LL_CKT W=1.135U
+  L=0.04U
X_MI36.I9._nr.MXPA2 I36.I9._NR.P1 NXBP1_0 VDDP_WDB VNWP P11LL_CKT W=1.135U
+  L=0.04U
X_MI36._drvwla0.MXN10 N2A ROWCLK2A VSSE VPW N11LL_CKT W=0.285U L=0.04U
X_MI36._drvwla0.MXN11 WLA18 I36._DRVWLA0.NWL VSSE VPW N11LL_CKT W=4.84U
+  L=0.04U
X_MI36._drvwla0.MXN8 I36._DRVWLA0.NWL I36.ROWSELA N2A VPW N11LL_CKT W=1.99U
+  L=0.04U
X_MI36._drvwla0.MXP12 I36._DRVWLA0.NWL ROWCLK2A VDDCE VNWC P11LL_CKT W=1.18U
+  L=0.04U
X_MI36._drvwla0.MXP13 I36._DRVWLA0.NWL I36.ROWSELA VDDCE VNWC P11LL_CKT
+  W=0.37U L=0.04U
X_MI36._drvwla0.MXP7 WLA18 I36._DRVWLA0.NWL VDDC_WLA0 VNWC P11LL_CKT W=7U
+  L=0.04U
X_MI36._drvwla1.MXN10 N3A ROWCLK3A VSSE VPW N11LL_CKT W=0.285U L=0.04U
X_MI36._drvwla1.MXN11 WLA19 I36._DRVWLA1.NWL VSSE VPW N11LL_CKT W=4.84U
+  L=0.04U
X_MI36._drvwla1.MXN8 I36._DRVWLA1.NWL I36.ROWSELA N3A VPW N11LL_CKT W=1.99U
+  L=0.04U
X_MI36._drvwla1.MXP12 I36._DRVWLA1.NWL ROWCLK3A VDDCE VNWC P11LL_CKT W=1.18U
+  L=0.04U
X_MI36._drvwla1.MXP13 I36._DRVWLA1.NWL I36.ROWSELA VDDCE VNWC P11LL_CKT
+  W=0.37U L=0.04U
X_MI36._drvwla1.MXP7 WLA19 I36._DRVWLA1.NWL VDDC_WLA1 VNWC P11LL_CKT W=7U
+  L=0.04U
X_MI36._drvwlb0.MXN10 N2B ROWCLK2B VSSE VPW N11LL_CKT W=0.285U L=0.04U
X_MI36._drvwlb0.MXN11 WLB18 I36._DRVWLB0.NWL VSSE VPW N11LL_CKT W=4.84U
+  L=0.04U
X_MI36._drvwlb0.MXN8 I36._DRVWLB0.NWL I36.ROWSELB N2B VPW N11LL_CKT W=1.99U
+  L=0.04U
X_MI36._drvwlb0.MXP12 I36._DRVWLB0.NWL ROWCLK2B VDDCE VNWC P11LL_CKT W=1.18U
+  L=0.04U
X_MI36._drvwlb0.MXP13 I36._DRVWLB0.NWL I36.ROWSELB VDDCE VNWC P11LL_CKT
+  W=0.37U L=0.04U
X_MI36._drvwlb0.MXP7 WLB18 I36._DRVWLB0.NWL VDDC_WLB0 VNWC P11LL_CKT W=7U
+  L=0.04U
X_MI36._drvwlb1.MXN10 N3B ROWCLK3B VSSE VPW N11LL_CKT W=0.285U L=0.04U
X_MI36._drvwlb1.MXN11 WLB19 I36._DRVWLB1.NWL VSSE VPW N11LL_CKT W=4.84U
+  L=0.04U
X_MI36._drvwlb1.MXN8 I36._DRVWLB1.NWL I36.ROWSELB N3B VPW N11LL_CKT W=1.99U
+  L=0.04U
X_MI36._drvwlb1.MXP12 I36._DRVWLB1.NWL ROWCLK3B VDDCE VNWC P11LL_CKT W=1.18U
+  L=0.04U
X_MI36._drvwlb1.MXP13 I36._DRVWLB1.NWL I36.ROWSELB VDDCE VNWC P11LL_CKT
+  W=0.37U L=0.04U
X_MI36._drvwlb1.MXP7 WLB19 I36._DRVWLB1.NWL VDDC_WLB1 VNWC P11LL_CKT W=7U
+  L=0.04U
X_MI4.I8.MX_npd I4.ROWSELA RETA VSSE VPW N11LL_CKT W=0.285U L=0.04U
X_MI4.I8.MX_nr_header VDDP_WDA RETA VDDPE VNWP P11LL_CKT W=1.135U L=0.04U
X_MI4.I8._nr.MXNA1 I4.ROWSELA NXAP0_2 VSSE VPW N11LL_CKT W=0.285U L=0.04U
X_MI4.I8._nr.MXNA2 I4.ROWSELA NXAP1_0 VSSE VPW N11LL_CKT W=0.285U L=0.04U
X_MI4.I8._nr.MXPA1 I4.ROWSELA NXAP0_2 I4.I8._NR.P1 VNWP P11LL_CKT W=1.135U
+  L=0.04U
X_MI4.I8._nr.MXPA2 I4.I8._NR.P1 NXAP1_0 VDDP_WDA VNWP P11LL_CKT W=1.135U
+  L=0.04U
X_MI4.I9.MX_npd I4.ROWSELB RETB VSSE VPW N11LL_CKT W=0.285U L=0.04U
X_MI4.I9.MX_nr_header VDDP_WDB RETB VDDPE VNWP P11LL_CKT W=1.135U L=0.04U
X_MI4.I9._nr.MXNA1 I4.ROWSELB NXBP0_2 VSSE VPW N11LL_CKT W=0.285U L=0.04U
X_MI4.I9._nr.MXNA2 I4.ROWSELB NXBP1_0 VSSE VPW N11LL_CKT W=0.285U L=0.04U
X_MI4.I9._nr.MXPA1 I4.ROWSELB NXBP0_2 I4.I9._NR.P1 VNWP P11LL_CKT W=1.135U
+  L=0.04U
X_MI4.I9._nr.MXPA2 I4.I9._NR.P1 NXBP1_0 VDDP_WDB VNWP P11LL_CKT W=1.135U
+  L=0.04U
X_MI4._drvwla0.MXN10 N0A ROWCLK0A VSSE VPW N11LL_CKT W=0.285U L=0.04U
X_MI4._drvwla0.MXN11 WLA8 I4._DRVWLA0.NWL VSSE VPW N11LL_CKT W=4.84U L=0.04U
X_MI4._drvwla0.MXN8 I4._DRVWLA0.NWL I4.ROWSELA N0A VPW N11LL_CKT W=1.99U
+  L=0.04U
X_MI4._drvwla0.MXP12 I4._DRVWLA0.NWL ROWCLK0A VDDCE VNWC P11LL_CKT W=1.18U
+  L=0.04U
X_MI4._drvwla0.MXP13 I4._DRVWLA0.NWL I4.ROWSELA VDDCE VNWC P11LL_CKT W=0.37U
+  L=0.04U
X_MI4._drvwla0.MXP7 WLA8 I4._DRVWLA0.NWL VDDC_WLA0 VNWC P11LL_CKT W=7U L=0.04U
X_MI4._drvwla1.MXN10 N1A ROWCLK1A VSSE VPW N11LL_CKT W=0.285U L=0.04U
X_MI4._drvwla1.MXN11 WLA9 I4._DRVWLA1.NWL VSSE VPW N11LL_CKT W=4.84U L=0.04U
X_MI4._drvwla1.MXN8 I4._DRVWLA1.NWL I4.ROWSELA N1A VPW N11LL_CKT W=1.99U
+  L=0.04U
X_MI4._drvwla1.MXP12 I4._DRVWLA1.NWL ROWCLK1A VDDCE VNWC P11LL_CKT W=1.18U
+  L=0.04U
X_MI4._drvwla1.MXP13 I4._DRVWLA1.NWL I4.ROWSELA VDDCE VNWC P11LL_CKT W=0.37U
+  L=0.04U
X_MI4._drvwla1.MXP7 WLA9 I4._DRVWLA1.NWL VDDC_WLA1 VNWC P11LL_CKT W=7U L=0.04U
X_MI4._drvwlb0.MXN10 N0B ROWCLK0B VSSE VPW N11LL_CKT W=0.285U L=0.04U
X_MI4._drvwlb0.MXN11 WLB8 I4._DRVWLB0.NWL VSSE VPW N11LL_CKT W=4.84U L=0.04U
X_MI4._drvwlb0.MXN8 I4._DRVWLB0.NWL I4.ROWSELB N0B VPW N11LL_CKT W=1.99U
+  L=0.04U
X_MI4._drvwlb0.MXP12 I4._DRVWLB0.NWL ROWCLK0B VDDCE VNWC P11LL_CKT W=1.18U
+  L=0.04U
X_MI4._drvwlb0.MXP13 I4._DRVWLB0.NWL I4.ROWSELB VDDCE VNWC P11LL_CKT W=0.37U
+  L=0.04U
X_MI4._drvwlb0.MXP7 WLB8 I4._DRVWLB0.NWL VDDC_WLB0 VNWC P11LL_CKT W=7U L=0.04U
X_MI4._drvwlb1.MXN10 N1B ROWCLK1B VSSE VPW N11LL_CKT W=0.285U L=0.04U
X_MI4._drvwlb1.MXN11 WLB9 I4._DRVWLB1.NWL VSSE VPW N11LL_CKT W=4.84U L=0.04U
X_MI4._drvwlb1.MXN8 I4._DRVWLB1.NWL I4.ROWSELB N1B VPW N11LL_CKT W=1.99U
+  L=0.04U
X_MI4._drvwlb1.MXP12 I4._DRVWLB1.NWL ROWCLK1B VDDCE VNWC P11LL_CKT W=1.18U
+  L=0.04U
X_MI4._drvwlb1.MXP13 I4._DRVWLB1.NWL I4.ROWSELB VDDCE VNWC P11LL_CKT W=0.37U
+  L=0.04U
X_MI4._drvwlb1.MXP7 WLB9 I4._DRVWLB1.NWL VDDC_WLB1 VNWC P11LL_CKT W=7U L=0.04U
X_MI40.I8.MX_npd I40.ROWSELA RETA VSSE VPW N11LL_CKT W=0.285U L=0.04U
X_MI40.I8.MX_nr_header VDDP_WDA RETA VDDPE VNWP P11LL_CKT W=1.135U L=0.04U
X_MI40.I8._nr.MXNA1 I40.ROWSELA NXAP0_5 VSSE VPW N11LL_CKT W=0.285U L=0.04U
X_MI40.I8._nr.MXNA2 I40.ROWSELA NXAP1_0 VSSE VPW N11LL_CKT W=0.285U L=0.04U
X_MI40.I8._nr.MXPA1 I40.ROWSELA NXAP0_5 I40.I8._NR.P1 VNWP P11LL_CKT W=1.135U
+  L=0.04U
X_MI40.I8._nr.MXPA2 I40.I8._NR.P1 NXAP1_0 VDDP_WDA VNWP P11LL_CKT W=1.135U
+  L=0.04U
X_MI40.I9.MX_npd I40.ROWSELB RETB VSSE VPW N11LL_CKT W=0.285U L=0.04U
X_MI40.I9.MX_nr_header VDDP_WDB RETB VDDPE VNWP P11LL_CKT W=1.135U L=0.04U
X_MI40.I9._nr.MXNA1 I40.ROWSELB NXBP0_5 VSSE VPW N11LL_CKT W=0.285U L=0.04U
X_MI40.I9._nr.MXNA2 I40.ROWSELB NXBP1_0 VSSE VPW N11LL_CKT W=0.285U L=0.04U
X_MI40.I9._nr.MXPA1 I40.ROWSELB NXBP0_5 I40.I9._NR.P1 VNWP P11LL_CKT W=1.135U
+  L=0.04U
X_MI40.I9._nr.MXPA2 I40.I9._NR.P1 NXBP1_0 VDDP_WDB VNWP P11LL_CKT W=1.135U
+  L=0.04U
X_MI40._drvwla0.MXN10 N0A ROWCLK0A VSSE VPW N11LL_CKT W=0.285U L=0.04U
X_MI40._drvwla0.MXN11 WLA20 I40._DRVWLA0.NWL VSSE VPW N11LL_CKT W=4.84U
+  L=0.04U
X_MI40._drvwla0.MXN8 I40._DRVWLA0.NWL I40.ROWSELA N0A VPW N11LL_CKT W=1.99U
+  L=0.04U
X_MI40._drvwla0.MXP12 I40._DRVWLA0.NWL ROWCLK0A VDDCE VNWC P11LL_CKT W=1.18U
+  L=0.04U
X_MI40._drvwla0.MXP13 I40._DRVWLA0.NWL I40.ROWSELA VDDCE VNWC P11LL_CKT
+  W=0.37U L=0.04U
X_MI40._drvwla0.MXP7 WLA20 I40._DRVWLA0.NWL VDDC_WLA0 VNWC P11LL_CKT W=7U
+  L=0.04U
X_MI40._drvwla1.MXN10 N1A ROWCLK1A VSSE VPW N11LL_CKT W=0.285U L=0.04U
X_MI40._drvwla1.MXN11 WLA21 I40._DRVWLA1.NWL VSSE VPW N11LL_CKT W=4.84U
+  L=0.04U
X_MI40._drvwla1.MXN8 I40._DRVWLA1.NWL I40.ROWSELA N1A VPW N11LL_CKT W=1.99U
+  L=0.04U
X_MI40._drvwla1.MXP12 I40._DRVWLA1.NWL ROWCLK1A VDDCE VNWC P11LL_CKT W=1.18U
+  L=0.04U
X_MI40._drvwla1.MXP13 I40._DRVWLA1.NWL I40.ROWSELA VDDCE VNWC P11LL_CKT
+  W=0.37U L=0.04U
X_MI40._drvwla1.MXP7 WLA21 I40._DRVWLA1.NWL VDDC_WLA1 VNWC P11LL_CKT W=7U
+  L=0.04U
X_MI40._drvwlb0.MXN10 N0B ROWCLK0B VSSE VPW N11LL_CKT W=0.285U L=0.04U
X_MI40._drvwlb0.MXN11 WLB20 I40._DRVWLB0.NWL VSSE VPW N11LL_CKT W=4.84U
+  L=0.04U
X_MI40._drvwlb0.MXN8 I40._DRVWLB0.NWL I40.ROWSELB N0B VPW N11LL_CKT W=1.99U
+  L=0.04U
X_MI40._drvwlb0.MXP12 I40._DRVWLB0.NWL ROWCLK0B VDDCE VNWC P11LL_CKT W=1.18U
+  L=0.04U
X_MI40._drvwlb0.MXP13 I40._DRVWLB0.NWL I40.ROWSELB VDDCE VNWC P11LL_CKT
+  W=0.37U L=0.04U
X_MI40._drvwlb0.MXP7 WLB20 I40._DRVWLB0.NWL VDDC_WLB0 VNWC P11LL_CKT W=7U
+  L=0.04U
X_MI40._drvwlb1.MXN10 N1B ROWCLK1B VSSE VPW N11LL_CKT W=0.285U L=0.04U
X_MI40._drvwlb1.MXN11 WLB21 I40._DRVWLB1.NWL VSSE VPW N11LL_CKT W=4.84U
+  L=0.04U
X_MI40._drvwlb1.MXN8 I40._DRVWLB1.NWL I40.ROWSELB N1B VPW N11LL_CKT W=1.99U
+  L=0.04U
X_MI40._drvwlb1.MXP12 I40._DRVWLB1.NWL ROWCLK1B VDDCE VNWC P11LL_CKT W=1.18U
+  L=0.04U
X_MI40._drvwlb1.MXP13 I40._DRVWLB1.NWL I40.ROWSELB VDDCE VNWC P11LL_CKT
+  W=0.37U L=0.04U
X_MI40._drvwlb1.MXP7 WLB21 I40._DRVWLB1.NWL VDDC_WLB1 VNWC P11LL_CKT W=7U
+  L=0.04U
X_MI42.I8.MX_npd I42.ROWSELA RETA VSSE VPW N11LL_CKT W=0.285U L=0.04U
X_MI42.I8.MX_nr_header VDDP_WDA RETA VDDPE VNWP P11LL_CKT W=1.135U L=0.04U
X_MI42.I8._nr.MXNA1 I42.ROWSELA NXAP0_5 VSSE VPW N11LL_CKT W=0.285U L=0.04U
X_MI42.I8._nr.MXNA2 I42.ROWSELA NXAP1_0 VSSE VPW N11LL_CKT W=0.285U L=0.04U
X_MI42.I8._nr.MXPA1 I42.ROWSELA NXAP0_5 I42.I8._NR.P1 VNWP P11LL_CKT W=1.135U
+  L=0.04U
X_MI42.I8._nr.MXPA2 I42.I8._NR.P1 NXAP1_0 VDDP_WDA VNWP P11LL_CKT W=1.135U
+  L=0.04U
X_MI42.I9.MX_npd I42.ROWSELB RETB VSSE VPW N11LL_CKT W=0.285U L=0.04U
X_MI42.I9.MX_nr_header VDDP_WDB RETB VDDPE VNWP P11LL_CKT W=1.135U L=0.04U
X_MI42.I9._nr.MXNA1 I42.ROWSELB NXBP0_5 VSSE VPW N11LL_CKT W=0.285U L=0.04U
X_MI42.I9._nr.MXNA2 I42.ROWSELB NXBP1_0 VSSE VPW N11LL_CKT W=0.285U L=0.04U
X_MI42.I9._nr.MXPA1 I42.ROWSELB NXBP0_5 I42.I9._NR.P1 VNWP P11LL_CKT W=1.135U
+  L=0.04U
X_MI42.I9._nr.MXPA2 I42.I9._NR.P1 NXBP1_0 VDDP_WDB VNWP P11LL_CKT W=1.135U
+  L=0.04U
X_MI42._drvwla0.MXN10 N2A ROWCLK2A VSSE VPW N11LL_CKT W=0.285U L=0.04U
X_MI42._drvwla0.MXN11 WLA22 I42._DRVWLA0.NWL VSSE VPW N11LL_CKT W=4.84U
+  L=0.04U
X_MI42._drvwla0.MXN8 I42._DRVWLA0.NWL I42.ROWSELA N2A VPW N11LL_CKT W=1.99U
+  L=0.04U
X_MI42._drvwla0.MXP12 I42._DRVWLA0.NWL ROWCLK2A VDDCE VNWC P11LL_CKT W=1.18U
+  L=0.04U
X_MI42._drvwla0.MXP13 I42._DRVWLA0.NWL I42.ROWSELA VDDCE VNWC P11LL_CKT
+  W=0.37U L=0.04U
X_MI42._drvwla0.MXP7 WLA22 I42._DRVWLA0.NWL VDDC_WLA0 VNWC P11LL_CKT W=7U
+  L=0.04U
X_MI42._drvwla1.MXN10 N3A ROWCLK3A VSSE VPW N11LL_CKT W=0.285U L=0.04U
X_MI42._drvwla1.MXN11 WLA23 I42._DRVWLA1.NWL VSSE VPW N11LL_CKT W=4.84U
+  L=0.04U
X_MI42._drvwla1.MXN8 I42._DRVWLA1.NWL I42.ROWSELA N3A VPW N11LL_CKT W=1.99U
+  L=0.04U
X_MI42._drvwla1.MXP12 I42._DRVWLA1.NWL ROWCLK3A VDDCE VNWC P11LL_CKT W=1.18U
+  L=0.04U
X_MI42._drvwla1.MXP13 I42._DRVWLA1.NWL I42.ROWSELA VDDCE VNWC P11LL_CKT
+  W=0.37U L=0.04U
X_MI42._drvwla1.MXP7 WLA23 I42._DRVWLA1.NWL VDDC_WLA1 VNWC P11LL_CKT W=7U
+  L=0.04U
X_MI42._drvwlb0.MXN10 N2B ROWCLK2B VSSE VPW N11LL_CKT W=0.285U L=0.04U
X_MI42._drvwlb0.MXN11 WLB22 I42._DRVWLB0.NWL VSSE VPW N11LL_CKT W=4.84U
+  L=0.04U
X_MI42._drvwlb0.MXN8 I42._DRVWLB0.NWL I42.ROWSELB N2B VPW N11LL_CKT W=1.99U
+  L=0.04U
X_MI42._drvwlb0.MXP12 I42._DRVWLB0.NWL ROWCLK2B VDDCE VNWC P11LL_CKT W=1.18U
+  L=0.04U
X_MI42._drvwlb0.MXP13 I42._DRVWLB0.NWL I42.ROWSELB VDDCE VNWC P11LL_CKT
+  W=0.37U L=0.04U
X_MI42._drvwlb0.MXP7 WLB22 I42._DRVWLB0.NWL VDDC_WLB0 VNWC P11LL_CKT W=7U
+  L=0.04U
X_MI42._drvwlb1.MXN10 N3B ROWCLK3B VSSE VPW N11LL_CKT W=0.285U L=0.04U